<?xml version="1.0" encoding="UTF-8"?>

<!-- generated on 2026-04-16 13:02:56.047319 by Eclipse SUMO randomTrips.py v1_26_0+0000-fa7df22d7f1
<configuration>
    <net-file value="C:\Users\Furkan\Desktop\traficies\trafix\sumo\map.net.xml"/>
    <output-trip-file value="C:\Users\Furkan\Desktop\traficies\trafix\sumo\training_demand.rou.xml"/>
    <fringe-factor value="10"/>
    <seed value="14994"/>
    <period value="1.27"/>
</configuration>
-->

<!-- generated on 2026-04-16T13:02:55.939750+03:00 by Eclipse SUMO duarouter 1.26.0
<duarouterConfiguration xmlns:xsi="http://www.w3.org/2001/XMLSchema-instance" xsi:noNamespaceSchemaLocation="http://sumo.dlr.de/xsd/duarouterConfiguration.xsd">

    <input>
        <net-file value="C:\Users\Furkan\Desktop\traficies\trafix\sumo\map.net.xml"/>
        <route-files value="C:\Users\Furkan\Desktop\traficies\trafix\sumo\training_demand.rou.xml"/>
    </input>

    <output>
        <output-file value="routes.rou.xml"/>
        <alternatives-output value="NUL"/>
    </output>

    <time>
        <begin value="0"/>
        <end value="3600.0"/>
    </time>

    <report>
        <no-warnings value="true"/>
        <ignore-errors value="true"/>
        <no-step-log value="true"/>
    </report>

</duarouterConfiguration>
-->

<routes xmlns:xsi="http://www.w3.org/2001/XMLSchema-instance" xsi:noNamespaceSchemaLocation="http://sumo.dlr.de/xsd/routes_file.xsd">
    <vehicle id="0" depart="0.00">
        <route edges="-E13 -E4 -E1 E0 E7"/>
    </vehicle>
    <vehicle id="1" depart="1.27">
        <route edges="-E6 E0 E8"/>
    </vehicle>
    <vehicle id="2" depart="2.54">
        <route edges="-E0 E5"/>
    </vehicle>
    <vehicle id="3" depart="3.81">
        <route edges="-E13 -E4 -E1 E5"/>
    </vehicle>
    <vehicle id="4" depart="5.08">
        <route edges="-E6 E0 E3 E10"/>
    </vehicle>
    <vehicle id="5" depart="6.35">
        <route edges="-E7 -E0 E1 E4 E13"/>
    </vehicle>
    <vehicle id="6" depart="7.62">
        <route edges="-E13 E12"/>
    </vehicle>
    <vehicle id="7" depart="8.89">
        <route edges="-E12 E14"/>
    </vehicle>
    <vehicle id="8" depart="10.16">
        <route edges="-E5 E1 E4 E14"/>
    </vehicle>
    <vehicle id="9" depart="11.43">
        <route edges="-E5 E1 E2 -E3 -E0 E5"/>
    </vehicle>
    <vehicle id="10" depart="12.70">
        <route edges="-E9 E2 E11"/>
    </vehicle>
    <vehicle id="11" depart="13.97">
        <route edges="-E9 E4 E12"/>
    </vehicle>
    <vehicle id="12" depart="15.24">
        <route edges="-E11 -E3 -E0 E5"/>
    </vehicle>
    <vehicle id="13" depart="16.51">
        <route edges="-E10 -E3"/>
    </vehicle>
    <vehicle id="14" depart="17.78">
        <route edges="-E6 E5"/>
    </vehicle>
    <vehicle id="15" depart="19.05">
        <route edges="-E5 E1 E9"/>
    </vehicle>
    <vehicle id="16" depart="20.32">
        <route edges="-E11 -E2 E4 E12"/>
    </vehicle>
    <vehicle id="17" depart="21.59">
        <route edges="-E7 -E0 E1 E4 E14"/>
    </vehicle>
    <vehicle id="18" depart="22.86">
        <route edges="-E8 -E0 E1 E2 -E3 E8"/>
    </vehicle>
    <vehicle id="19" depart="24.13">
        <route edges="-E10 E11"/>
    </vehicle>
    <vehicle id="20" depart="25.40">
        <route edges="-E13 -E4 -E1 E5"/>
    </vehicle>
    <vehicle id="21" depart="26.67">
        <route edges="-E13 -E4 -E1 E0 E7"/>
    </vehicle>
    <vehicle id="22" depart="27.94">
        <route edges="-E5 E1 E4 E12"/>
    </vehicle>
    <vehicle id="23" depart="29.21">
        <route edges="-E6 E1 E2 E11"/>
    </vehicle>
    <vehicle id="24" depart="30.48">
        <route edges="-E10 E11"/>
    </vehicle>
    <vehicle id="25" depart="31.75">
        <route edges="-E11 -E3 -E0 E5"/>
    </vehicle>
    <vehicle id="26" depart="33.02">
        <route edges="-E10 -E2 -E1 E6"/>
    </vehicle>
    <vehicle id="27" depart="34.29">
        <route edges="-E13 E12"/>
    </vehicle>
    <vehicle id="28" depart="35.56">
        <route edges="-E10 -E2 E9"/>
    </vehicle>
    <vehicle id="29" depart="36.83">
        <route edges="-E9 E2 E11"/>
    </vehicle>
    <vehicle id="30" depart="38.10">
        <route edges="-E11 -E2 -E1 E6"/>
    </vehicle>
    <vehicle id="31" depart="39.37">
        <route edges="-E12 -E4 E2 -E3 E8"/>
    </vehicle>
    <vehicle id="32" depart="40.64">
        <route edges="-E12 -E4 -E1 E0 E7"/>
    </vehicle>
    <vehicle id="33" depart="41.91">
        <route edges="-E12 -E4 E2 E10"/>
    </vehicle>
    <vehicle id="34" depart="43.18">
        <route edges="-E10 -E3 -E0 E1 E2 E10"/>
    </vehicle>
    <vehicle id="35" depart="44.45">
        <route edges="-E8 -E0 E1 E4 E13"/>
    </vehicle>
    <vehicle id="36" depart="45.72">
        <route edges="-E11 -E3 E8"/>
    </vehicle>
    <vehicle id="37" depart="46.99">
        <route edges="-E8 E3 -E2 E9"/>
    </vehicle>
    <vehicle id="38" depart="48.26">
        <route edges="-E9 E4 E12"/>
    </vehicle>
    <vehicle id="39" depart="49.53">
        <route edges="-E12 -E4 E2 -E3 -E0 E1 E4 E12"/>
    </vehicle>
    <vehicle id="40" depart="50.80">
        <route edges="-E10 -E3 -E0 E1 E2 E10"/>
    </vehicle>
    <vehicle id="41" depart="52.07">
        <route edges="-E11 -E2 -E1 E6"/>
    </vehicle>
    <vehicle id="42" depart="53.34">
        <route edges="-E10 -E2 E9"/>
    </vehicle>
    <vehicle id="43" depart="54.61">
        <route edges="-E8 E3 E11"/>
    </vehicle>
    <vehicle id="44" depart="55.88">
        <route edges="-E7 -E0 E1 E4 E14"/>
    </vehicle>
    <vehicle id="45" depart="57.15">
        <route edges="-E10 -E3 E8"/>
    </vehicle>
    <vehicle id="46" depart="58.42">
        <route edges="-E7 -E0 E1 E4 E12"/>
    </vehicle>
    <vehicle id="47" depart="59.69">
        <route edges="-E11 -E2 E4 E13"/>
    </vehicle>
    <vehicle id="48" depart="60.96">
        <route edges="-E5 E1 E4 E13"/>
    </vehicle>
    <vehicle id="49" depart="62.23">
        <route edges="E1 E2 E11"/>
    </vehicle>
    <vehicle id="50" depart="63.50">
        <route edges="-E12 -E4 -E1 E6"/>
    </vehicle>
    <vehicle id="51" depart="64.77">
        <route edges="-E7 -E0 E1 E2 -E3"/>
    </vehicle>
    <vehicle id="52" depart="66.04">
        <route edges="-E7 E3 -E2 E9"/>
    </vehicle>
    <vehicle id="53" depart="67.31">
        <route edges="-E9 E4 E14"/>
    </vehicle>
    <vehicle id="54" depart="68.58">
        <route edges="-E14 -E4 E2 -E3 E8"/>
    </vehicle>
    <vehicle id="55" depart="69.85">
        <route edges="-E12 -E4 E2 E10"/>
    </vehicle>
    <vehicle id="56" depart="71.12">
        <route edges="-E7 -E0 E1 E2 -E3 E7"/>
    </vehicle>
    <vehicle id="57" depart="72.39">
        <route edges="-E8 -E0 E1 E4 E14"/>
    </vehicle>
    <vehicle id="58" depart="73.66">
        <route edges="-E9 E2 E11"/>
    </vehicle>
    <vehicle id="59" depart="74.93">
        <route edges="-E2 E4 E14"/>
    </vehicle>
    <vehicle id="60" depart="76.20">
        <route edges="E2 -E3 -E0 E5"/>
    </vehicle>
    <vehicle id="61" depart="77.47">
        <route edges="-E6 E0 E8"/>
    </vehicle>
    <vehicle id="62" depart="78.74">
        <route edges="-E6 E1 E4 E14"/>
    </vehicle>
    <vehicle id="63" depart="80.01">
        <route edges="-E14 -E4 E9"/>
    </vehicle>
    <vehicle id="64" depart="81.28">
        <route edges="-E7 E3 -E2 E9"/>
    </vehicle>
    <vehicle id="65" depart="82.55">
        <route edges="-E11 -E2 -E1"/>
    </vehicle>
    <vehicle id="66" depart="83.82">
        <route edges="-E12 E13"/>
    </vehicle>
    <vehicle id="67" depart="85.09">
        <route edges="-E10 -E3 E7"/>
    </vehicle>
    <vehicle id="68" depart="86.36">
        <route edges="-E13 -E4 -E1 E5"/>
    </vehicle>
    <vehicle id="69" depart="87.63">
        <route edges="-E13 E12"/>
    </vehicle>
    <vehicle id="70" depart="88.90">
        <route edges="-E9 E2 E11"/>
    </vehicle>
    <vehicle id="71" depart="90.17">
        <route edges="-E12 -E4 -E1 E5"/>
    </vehicle>
    <vehicle id="72" depart="91.44">
        <route edges="-E12 -E4 -E1 E5"/>
    </vehicle>
    <vehicle id="73" depart="92.71">
        <route edges="-E11 -E3 -E0 E5"/>
    </vehicle>
    <vehicle id="74" depart="93.98">
        <route edges="-E6 E1 E4 E14"/>
    </vehicle>
    <vehicle id="75" depart="95.25">
        <route edges="-E14 E13"/>
    </vehicle>
    <vehicle id="76" depart="96.52">
        <route edges="-E11 -E3 -E0 E5"/>
    </vehicle>
    <vehicle id="77" depart="97.79">
        <route edges="-E10 -E3 -E0 E5"/>
    </vehicle>
    <vehicle id="78" depart="99.06">
        <route edges="-E11 -E2 E4 E12"/>
    </vehicle>
    <vehicle id="79" depart="100.33">
        <route edges="-E7 E3 -E2 E9"/>
    </vehicle>
    <vehicle id="80" depart="101.60">
        <route edges="-E14 -E4 E9"/>
    </vehicle>
    <vehicle id="81" depart="102.87">
        <route edges="-E2 -E1 E5"/>
    </vehicle>
    <vehicle id="82" depart="104.14">
        <route edges="-E5 E1 E4 E14"/>
    </vehicle>
    <vehicle id="83" depart="105.41">
        <route edges="-E9 E2 -E3 -E0 E1 E9"/>
    </vehicle>
    <vehicle id="84" depart="106.68">
        <route edges="-E9 E2 -E3 -E0 E1 E9"/>
    </vehicle>
    <vehicle id="85" depart="107.95">
        <route edges="-E5 E1 E9"/>
    </vehicle>
    <vehicle id="86" depart="109.22">
        <route edges="-E12 -E4 E9"/>
    </vehicle>
    <vehicle id="87" depart="110.49">
        <route edges="-E3 -E0 E1 E2 E11"/>
    </vehicle>
    <vehicle id="88" depart="111.76">
        <route edges="-E9 -E1 E5"/>
    </vehicle>
    <vehicle id="89" depart="113.03">
        <route edges="-E11 -E2 E9"/>
    </vehicle>
    <vehicle id="90" depart="114.30">
        <route edges="-E0 E1 E2 -E3 E7"/>
    </vehicle>
    <vehicle id="91" depart="115.57">
        <route edges="-E5 E6"/>
    </vehicle>
    <vehicle id="92" depart="116.84">
        <route edges="-E6 E0 E7"/>
    </vehicle>
    <vehicle id="93" depart="118.11">
        <route edges="-E14 -E4 E2 -E3"/>
    </vehicle>
    <vehicle id="94" depart="119.38">
        <route edges="-E5 E0 E3 E10"/>
    </vehicle>
    <vehicle id="95" depart="120.65">
        <route edges="-E9 E4 E12"/>
    </vehicle>
    <vehicle id="96" depart="121.92">
        <route edges="-E13 -E4 E2 -E3 -E0 E1 E4 E13"/>
    </vehicle>
    <vehicle id="97" depart="123.19">
        <route edges="-E13 -E4 -E1 E6"/>
    </vehicle>
    <vehicle id="98" depart="124.46">
        <route edges="-E1 E0 E3 -E2"/>
    </vehicle>
    <vehicle id="99" depart="125.73">
        <route edges="-E8 -E0 E1 E4 E13"/>
    </vehicle>
    <vehicle id="100" depart="127.00">
        <route edges="-E12 E13"/>
    </vehicle>
    <vehicle id="101" depart="128.27">
        <route edges="-E10 -E2 E4"/>
    </vehicle>
    <vehicle id="102" depart="129.54">
        <route edges="-E9 E4 E13"/>
    </vehicle>
    <vehicle id="103" depart="130.81">
        <route edges="-E9 E4 E14"/>
    </vehicle>
    <vehicle id="104" depart="132.08">
        <route edges="-E9 E4 E14"/>
    </vehicle>
    <vehicle id="105" depart="133.35">
        <route edges="-E11 -E3 -E0 E1 E2 E11"/>
    </vehicle>
    <vehicle id="106" depart="134.62">
        <route edges="-E10 E11"/>
    </vehicle>
    <vehicle id="107" depart="135.89">
        <route edges="-E6 E5"/>
    </vehicle>
    <vehicle id="108" depart="137.16">
        <route edges="-E12 -E4 E2 -E3 E8"/>
    </vehicle>
    <vehicle id="109" depart="138.43">
        <route edges="-E14 E13"/>
    </vehicle>
    <vehicle id="110" depart="139.70">
        <route edges="-E7 -E0 E1 E4 E13"/>
    </vehicle>
    <vehicle id="111" depart="140.97">
        <route edges="-E8 E3 E10"/>
    </vehicle>
    <vehicle id="112" depart="142.24">
        <route edges="-E5 E0 E3 E10"/>
    </vehicle>
    <vehicle id="113" depart="143.51">
        <route edges="-E10 -E3 E7"/>
    </vehicle>
    <vehicle id="114" depart="144.78">
        <route edges="-E6 E1"/>
    </vehicle>
    <vehicle id="115" depart="146.05">
        <route edges="-E9 -E1 E6"/>
    </vehicle>
    <vehicle id="116" depart="147.32">
        <route edges="-E12 -E4 E2 -E3 -E0 E1 E4 E12"/>
    </vehicle>
    <vehicle id="117" depart="148.59">
        <route edges="-E6 E1 E4 E13"/>
    </vehicle>
    <vehicle id="118" depart="149.86">
        <route edges="-E5 E0 E3 E10"/>
    </vehicle>
    <vehicle id="119" depart="151.13">
        <route edges="-E13 -E4 E2 -E3"/>
    </vehicle>
    <vehicle id="120" depart="152.40">
        <route edges="-E6 E0 E7"/>
    </vehicle>
    <vehicle id="121" depart="153.67">
        <route edges="-E9 E4 E12"/>
    </vehicle>
    <vehicle id="122" depart="154.94">
        <route edges="-E10 -E2 E4 E13"/>
    </vehicle>
    <vehicle id="123" depart="156.21">
        <route edges="-E10 -E2 E9"/>
    </vehicle>
    <vehicle id="124" depart="157.48">
        <route edges="-E7 -E0 E1 E2"/>
    </vehicle>
    <vehicle id="125" depart="158.75">
        <route edges="-E11 -E3 E7"/>
    </vehicle>
    <vehicle id="126" depart="160.02">
        <route edges="-E8 -E0 E5"/>
    </vehicle>
    <vehicle id="127" depart="161.29">
        <route edges="-E11 -E3 E8"/>
    </vehicle>
    <vehicle id="128" depart="162.56">
        <route edges="-E8 E7"/>
    </vehicle>
    <vehicle id="129" depart="163.83">
        <route edges="-E11 -E2 E4 E14"/>
    </vehicle>
    <vehicle id="130" depart="165.10">
        <route edges="-E9 E4 E13"/>
    </vehicle>
    <vehicle id="131" depart="166.37">
        <route edges="-E8 -E0 E6"/>
    </vehicle>
    <vehicle id="132" depart="167.64">
        <route edges="-E12 -E4 -E1 E5"/>
    </vehicle>
    <vehicle id="133" depart="168.91">
        <route edges="-E7 E8"/>
    </vehicle>
    <vehicle id="134" depart="170.18">
        <route edges="-E7 -E0 E1 E4 E14"/>
    </vehicle>
    <vehicle id="135" depart="171.45">
        <route edges="-E5 E1 E2 E11"/>
    </vehicle>
    <vehicle id="136" depart="172.72">
        <route edges="-E11 -E2 E4 E12"/>
    </vehicle>
    <vehicle id="137" depart="173.99">
        <route edges="-E13 -E4 E2 -E3 -E0 E1 E4 E13"/>
    </vehicle>
    <vehicle id="138" depart="175.26">
        <route edges="-E5 E0 E7"/>
    </vehicle>
    <vehicle id="139" depart="176.53">
        <route edges="-E14 -E4 E2 -E3 -E0"/>
    </vehicle>
    <vehicle id="140" depart="177.80">
        <route edges="-E14 E12"/>
    </vehicle>
    <vehicle id="141" depart="179.07">
        <route edges="-E12 -E4 E9"/>
    </vehicle>
    <vehicle id="142" depart="180.34">
        <route edges="-E10 -E2 E4 E14"/>
    </vehicle>
    <vehicle id="143" depart="181.61">
        <route edges="-E6 E1 E2 E11"/>
    </vehicle>
    <vehicle id="144" depart="182.88">
        <route edges="-E12 -E4 E9"/>
    </vehicle>
    <vehicle id="145" depart="184.15">
        <route edges="-E5 E1 E4 E13"/>
    </vehicle>
    <vehicle id="146" depart="185.42">
        <route edges="-E11 -E2 E4 E14"/>
    </vehicle>
    <vehicle id="147" depart="186.69">
        <route edges="-E6 E1 E4"/>
    </vehicle>
    <vehicle id="148" depart="187.96">
        <route edges="-E9 E2 E10"/>
    </vehicle>
    <vehicle id="149" depart="189.23">
        <route edges="-E11 -E3 -E0 E1 E2 E11"/>
    </vehicle>
    <vehicle id="150" depart="190.50">
        <route edges="-E9 -E1 E5"/>
    </vehicle>
    <vehicle id="151" depart="191.77">
        <route edges="-E5 E1 E4 E14"/>
    </vehicle>
    <vehicle id="152" depart="193.04">
        <route edges="-E12 -E4 -E1 E6"/>
    </vehicle>
    <vehicle id="153" depart="194.31">
        <route edges="-E5 E1 E4 E14"/>
    </vehicle>
    <vehicle id="154" depart="195.58">
        <route edges="-E14 -E4 E2 E10"/>
    </vehicle>
    <vehicle id="155" depart="196.85">
        <route edges="-E9 -E1 E5"/>
    </vehicle>
    <vehicle id="156" depart="198.12">
        <route edges="-E13 -E4 E2 E11"/>
    </vehicle>
    <vehicle id="157" depart="199.39">
        <route edges="-E5 E1 E4 E13"/>
    </vehicle>
    <vehicle id="158" depart="200.66">
        <route edges="-E12 -E4 -E1 E5"/>
    </vehicle>
    <vehicle id="159" depart="201.93">
        <route edges="-E6 E0 E8"/>
    </vehicle>
    <vehicle id="160" depart="203.20">
        <route edges="-E12 -E4 -E1 E0"/>
    </vehicle>
    <vehicle id="161" depart="204.47">
        <route edges="-E10 -E3 E7"/>
    </vehicle>
    <vehicle id="162" depart="205.74">
        <route edges="-E6 E5"/>
    </vehicle>
    <vehicle id="163" depart="207.01">
        <route edges="-E13 -E4 -E1 E5"/>
    </vehicle>
    <vehicle id="164" depart="208.28">
        <route edges="-E2 E4 E13"/>
    </vehicle>
    <vehicle id="165" depart="209.55">
        <route edges="-E7 -E0 E1 E4 E12"/>
    </vehicle>
    <vehicle id="166" depart="210.82">
        <route edges="-E14 -E4 -E1 E0 E7"/>
    </vehicle>
    <vehicle id="167" depart="212.09">
        <route edges="-E13 -E4 E2 -E3 -E0 E1 E4 E13"/>
    </vehicle>
    <vehicle id="168" depart="213.36">
        <route edges="E0 E3 -E2 E4 E12"/>
    </vehicle>
    <vehicle id="169" depart="214.63">
        <route edges="-E8 E3 -E2 -E1 E0"/>
    </vehicle>
    <vehicle id="170" depart="215.90">
        <route edges="-E5 E0 E3 -E2 -E1"/>
    </vehicle>
    <vehicle id="171" depart="217.17">
        <route edges="-E5 E1 E4 E14"/>
    </vehicle>
    <vehicle id="172" depart="218.44">
        <route edges="-E5 E0 E7"/>
    </vehicle>
    <vehicle id="173" depart="219.71">
        <route edges="-E5 E0 E3 E10"/>
    </vehicle>
    <vehicle id="174" depart="220.98">
        <route edges="-E13 -E4 E2 E11"/>
    </vehicle>
    <vehicle id="175" depart="222.25">
        <route edges="-E9 E2 E10"/>
    </vehicle>
    <vehicle id="176" depart="223.52">
        <route edges="-E13 -E4 -E1 E6"/>
    </vehicle>
    <vehicle id="177" depart="224.79">
        <route edges="-E14 -E4 -E1 E5"/>
    </vehicle>
    <vehicle id="178" depart="226.06">
        <route edges="-E3 -E0 E5"/>
    </vehicle>
    <vehicle id="179" depart="227.33">
        <route edges="-E11 -E2 -E1 E6"/>
    </vehicle>
    <vehicle id="180" depart="228.60">
        <route edges="-E9 -E1 E6"/>
    </vehicle>
    <vehicle id="181" depart="229.87">
        <route edges="-E11 -E2 E9"/>
    </vehicle>
    <vehicle id="182" depart="231.14">
        <route edges="-E6 E0 E7"/>
    </vehicle>
    <vehicle id="183" depart="232.41">
        <route edges="-E5 E1 E2 -E3 -E0 E5"/>
    </vehicle>
    <vehicle id="184" depart="233.68">
        <route edges="-E14 -E4 -E1 E6"/>
    </vehicle>
    <vehicle id="185" depart="234.95">
        <route edges="-E11 -E3 E7"/>
    </vehicle>
    <vehicle id="186" depart="236.22">
        <route edges="-E11 E10"/>
    </vehicle>
    <vehicle id="187" depart="237.49">
        <route edges="-E9 -E1 E5"/>
    </vehicle>
    <vehicle id="188" depart="238.76">
        <route edges="-E7 E3 E11"/>
    </vehicle>
    <vehicle id="189" depart="240.03">
        <route edges="-E6 E1 E2 -E3 -E0 E6"/>
    </vehicle>
    <vehicle id="190" depart="241.30">
        <route edges="-E13 E14"/>
    </vehicle>
    <vehicle id="191" depart="242.57">
        <route edges="-E6 E1 E2 E11"/>
    </vehicle>
    <vehicle id="192" depart="243.84">
        <route edges="-E11 -E3 -E0 E1 E2 E11"/>
    </vehicle>
    <vehicle id="193" depart="245.11">
        <route edges="-E11 -E3 E7"/>
    </vehicle>
    <vehicle id="194" depart="246.38">
        <route edges="-E13 -E4 -E1 E0 E3"/>
    </vehicle>
    <vehicle id="195" depart="247.65">
        <route edges="-E9 E4 E12"/>
    </vehicle>
    <vehicle id="196" depart="248.92">
        <route edges="-E11 -E3 E7"/>
    </vehicle>
    <vehicle id="197" depart="250.19">
        <route edges="-E10 -E3 E8"/>
    </vehicle>
    <vehicle id="198" depart="251.46">
        <route edges="-E6 E1 E4 E12"/>
    </vehicle>
    <vehicle id="199" depart="252.73">
        <route edges="-E7 -E0 E5"/>
    </vehicle>
    <vehicle id="200" depart="254.00">
        <route edges="-E14 E12"/>
    </vehicle>
    <vehicle id="201" depart="255.27">
        <route edges="-E11 -E2 E4 E12"/>
    </vehicle>
    <vehicle id="202" depart="256.54">
        <route edges="-E10 -E2 E4 E12"/>
    </vehicle>
    <vehicle id="203" depart="257.81">
        <route edges="-E13 -E4 -E1 E0 E7"/>
    </vehicle>
    <vehicle id="204" depart="259.08">
        <route edges="-E5 E1 E4 E13"/>
    </vehicle>
    <vehicle id="205" depart="260.35">
        <route edges="-E9 E2 E10"/>
    </vehicle>
    <vehicle id="206" depart="261.62">
        <route edges="-E13 -E4 -E1 E0 E8"/>
    </vehicle>
    <vehicle id="207" depart="262.89">
        <route edges="-E9 -E1 E5"/>
    </vehicle>
    <vehicle id="208" depart="264.16">
        <route edges="-E9 -E1 E0 E7"/>
    </vehicle>
    <vehicle id="209" depart="265.43">
        <route edges="-E14 -E4 -E1 E0 E3 -E2"/>
    </vehicle>
    <vehicle id="210" depart="266.70">
        <route edges="E1 E2 -E3 E7"/>
    </vehicle>
    <vehicle id="211" depart="267.97">
        <route edges="-E13 -E4 E2 -E3 -E0 E1 E4 E13"/>
    </vehicle>
    <vehicle id="212" depart="269.24">
        <route edges="-E9 E4 E13"/>
    </vehicle>
    <vehicle id="213" depart="270.51">
        <route edges="-E10 -E2 E4 E12"/>
    </vehicle>
    <vehicle id="214" depart="271.78">
        <route edges="-E10 -E2 E9"/>
    </vehicle>
    <vehicle id="215" depart="273.05">
        <route edges="-E8 E3 E11"/>
    </vehicle>
    <vehicle id="216" depart="274.32">
        <route edges="-E7 -E0 E1 E2 -E3 E7"/>
    </vehicle>
    <vehicle id="217" depart="275.59">
        <route edges="-E13 E14"/>
    </vehicle>
    <vehicle id="218" depart="276.86">
        <route edges="-E9 E2 E10"/>
    </vehicle>
    <vehicle id="219" depart="278.13">
        <route edges="-E14 E12"/>
    </vehicle>
    <vehicle id="220" depart="279.40">
        <route edges="-E12 -E4 E9"/>
    </vehicle>
    <vehicle id="221" depart="280.67">
        <route edges="-E5 E0 E7"/>
    </vehicle>
    <vehicle id="222" depart="281.94">
        <route edges="-E6 E1 E4 E13"/>
    </vehicle>
    <vehicle id="223" depart="283.21">
        <route edges="-E11 -E2 -E1 E6"/>
    </vehicle>
    <vehicle id="224" depart="284.48">
        <route edges="-E13 E12"/>
    </vehicle>
    <vehicle id="225" depart="285.75">
        <route edges="-E12 -E4 E2 -E3 -E0 E1 E4 E12"/>
    </vehicle>
    <vehicle id="226" depart="287.02">
        <route edges="-E13 E14"/>
    </vehicle>
    <vehicle id="227" depart="288.29">
        <route edges="-E14 E13"/>
    </vehicle>
    <vehicle id="228" depart="289.56">
        <route edges="-E12 -E4 E2 E10"/>
    </vehicle>
    <vehicle id="229" depart="290.83">
        <route edges="-E12 E14"/>
    </vehicle>
    <vehicle id="230" depart="292.10">
        <route edges="-E12 -E4 E2 -E3 E8"/>
    </vehicle>
    <vehicle id="231" depart="293.37">
        <route edges="-E10 -E2 E4 E12"/>
    </vehicle>
    <vehicle id="232" depart="294.64">
        <route edges="-E2 -E1 E0 E3 E10"/>
    </vehicle>
    <vehicle id="233" depart="295.91">
        <route edges="-E12 E14"/>
    </vehicle>
    <vehicle id="234" depart="297.18">
        <route edges="-E13 -E4 -E1 E5"/>
    </vehicle>
    <vehicle id="235" depart="298.45">
        <route edges="-E9 E2 -E3 -E0 E1 E9"/>
    </vehicle>
    <vehicle id="236" depart="299.72">
        <route edges="-E8 -E0 E5"/>
    </vehicle>
    <vehicle id="237" depart="300.99">
        <route edges="-E5 E0 E3 E10"/>
    </vehicle>
    <vehicle id="238" depart="302.26">
        <route edges="-E8 E3 -E2 E9"/>
    </vehicle>
    <vehicle id="239" depart="303.53">
        <route edges="-E8 -E0 E1 E4 E12"/>
    </vehicle>
    <vehicle id="240" depart="304.80">
        <route edges="-E3 E8"/>
    </vehicle>
    <vehicle id="241" depart="306.07">
        <route edges="-E12 -E4 E2 E11"/>
    </vehicle>
    <vehicle id="242" depart="307.34">
        <route edges="-E10 -E3 -E0 E1 E2 E10"/>
    </vehicle>
    <vehicle id="243" depart="308.61">
        <route edges="-E5 E1 E9"/>
    </vehicle>
    <vehicle id="244" depart="309.88">
        <route edges="-E7 E3 E11"/>
    </vehicle>
    <vehicle id="245" depart="311.15">
        <route edges="-E13 -E4 -E1 E0"/>
    </vehicle>
    <vehicle id="246" depart="312.42">
        <route edges="-E7 E8"/>
    </vehicle>
    <vehicle id="247" depart="313.69">
        <route edges="-E10 -E2 E4 E14"/>
    </vehicle>
    <vehicle id="248" depart="314.96">
        <route edges="-E8 -E0 E5"/>
    </vehicle>
    <vehicle id="249" depart="316.23">
        <route edges="-E8 E7"/>
    </vehicle>
    <vehicle id="250" depart="317.50">
        <route edges="-E5 E6"/>
    </vehicle>
    <vehicle id="251" depart="318.77">
        <route edges="-E1 E0 E3 -E2 E4 E12"/>
    </vehicle>
    <vehicle id="252" depart="320.04">
        <route edges="-E7 E8"/>
    </vehicle>
    <vehicle id="253" depart="321.31">
        <route edges="-E9 E4 E14"/>
    </vehicle>
    <vehicle id="254" depart="322.58">
        <route edges="-E14 -E4 E2 -E3 -E0 E1"/>
    </vehicle>
    <vehicle id="255" depart="323.85">
        <route edges="-E11 -E2 -E1 E6"/>
    </vehicle>
    <vehicle id="256" depart="325.12">
        <route edges="-E12 -E4 E2 E10"/>
    </vehicle>
    <vehicle id="257" depart="326.39">
        <route edges="-E4 E2 E11"/>
    </vehicle>
    <vehicle id="258" depart="327.66">
        <route edges="-E7 -E0 E1 E2 -E3 E7"/>
    </vehicle>
    <vehicle id="259" depart="328.93">
        <route edges="-E7 -E0 E1 E4 E14"/>
    </vehicle>
    <vehicle id="260" depart="330.20">
        <route edges="-E3 -E0 E1 E4 E12"/>
    </vehicle>
    <vehicle id="261" depart="331.47">
        <route edges="-E14 -E4 E2 -E3 E8"/>
    </vehicle>
    <vehicle id="262" depart="332.74">
        <route edges="E1 E2 -E3 E8"/>
    </vehicle>
    <vehicle id="263" depart="334.01">
        <route edges="-E6 E1 E4 E12"/>
    </vehicle>
    <vehicle id="264" depart="335.28">
        <route edges="-E8 -E0 E1 E4 E14"/>
    </vehicle>
    <vehicle id="265" depart="336.55">
        <route edges="-E11 -E3 -E0 E5"/>
    </vehicle>
    <vehicle id="266" depart="337.82">
        <route edges="-E12 -E4 E2 E10"/>
    </vehicle>
    <vehicle id="267" depart="339.09">
        <route edges="-E9 E4 E12"/>
    </vehicle>
    <vehicle id="268" depart="340.36">
        <route edges="-E11 -E3 E8"/>
    </vehicle>
    <vehicle id="269" depart="341.63">
        <route edges="-E14 -E4 -E1 E0 E7"/>
    </vehicle>
    <vehicle id="270" depart="342.90">
        <route edges="-E6 E0 E8"/>
    </vehicle>
    <vehicle id="271" depart="344.17">
        <route edges="-E0 E1 E9"/>
    </vehicle>
    <vehicle id="272" depart="345.44">
        <route edges="-E14 E13"/>
    </vehicle>
    <vehicle id="273" depart="346.71">
        <route edges="-E12 E14"/>
    </vehicle>
    <vehicle id="274" depart="347.98">
        <route edges="-E14 E12"/>
    </vehicle>
    <vehicle id="275" depart="349.25">
        <route edges="-E13 E12"/>
    </vehicle>
    <vehicle id="276" depart="350.52">
        <route edges="-E12 -E4 E2 -E3 E8"/>
    </vehicle>
    <vehicle id="277" depart="351.79">
        <route edges="-E13 E14"/>
    </vehicle>
    <vehicle id="278" depart="353.06">
        <route edges="-E14 -E4 E2 E11"/>
    </vehicle>
    <vehicle id="279" depart="354.33">
        <route edges="-E14 -E4 E2 -E3 -E0 E1 E4 E14"/>
    </vehicle>
    <vehicle id="280" depart="355.60">
        <route edges="-E8 -E0 E1 E4 E12"/>
    </vehicle>
    <vehicle id="281" depart="356.87">
        <route edges="-E6 E1 E2 E11"/>
    </vehicle>
    <vehicle id="282" depart="358.14">
        <route edges="-E13 E12"/>
    </vehicle>
    <vehicle id="283" depart="359.41">
        <route edges="-E8 -E0 E1 E2 -E3 E8"/>
    </vehicle>
    <vehicle id="284" depart="360.68">
        <route edges="-E10 -E3 E7"/>
    </vehicle>
    <vehicle id="285" depart="361.95">
        <route edges="-E8 -E0 E5"/>
    </vehicle>
    <vehicle id="286" depart="363.22">
        <route edges="-E9 -E1 E0 E7"/>
    </vehicle>
    <vehicle id="287" depart="364.49">
        <route edges="-E5 E1 E2 E11"/>
    </vehicle>
    <vehicle id="288" depart="365.76">
        <route edges="-E7 -E0 E1 E2"/>
    </vehicle>
    <vehicle id="289" depart="367.03">
        <route edges="-E10 -E2 E9"/>
    </vehicle>
    <vehicle id="290" depart="368.30">
        <route edges="-E11 -E2 -E1 E0"/>
    </vehicle>
    <vehicle id="291" depart="369.57">
        <route edges="-E13 -E4 E2 E11"/>
    </vehicle>
    <vehicle id="292" depart="370.84">
        <route edges="-E7 E8"/>
    </vehicle>
    <vehicle id="293" depart="372.11">
        <route edges="-E10 -E2 E4 E13"/>
    </vehicle>
    <vehicle id="294" depart="373.38">
        <route edges="-E12 -E4 E2 E11"/>
    </vehicle>
    <vehicle id="295" depart="374.65">
        <route edges="-E13 E12"/>
    </vehicle>
    <vehicle id="296" depart="375.92">
        <route edges="-E13 -E4 -E1 E0 E8"/>
    </vehicle>
    <vehicle id="297" depart="377.19">
        <route edges="-E11 -E2 -E1 E6"/>
    </vehicle>
    <vehicle id="298" depart="378.46">
        <route edges="-E13 -E4 -E1 E6"/>
    </vehicle>
    <vehicle id="299" depart="379.73">
        <route edges="-E11 -E2 E9"/>
    </vehicle>
    <vehicle id="300" depart="381.00">
        <route edges="-E11 -E3 E7"/>
    </vehicle>
    <vehicle id="301" depart="382.27">
        <route edges="-E12 -E4 E2 E10"/>
    </vehicle>
    <vehicle id="302" depart="383.54">
        <route edges="-E5 E1 E4 E12"/>
    </vehicle>
    <vehicle id="303" depart="384.81">
        <route edges="-E14 E13"/>
    </vehicle>
    <vehicle id="304" depart="386.08">
        <route edges="-E9 -E1 E5"/>
    </vehicle>
    <vehicle id="305" depart="387.35">
        <route edges="-E11 -E2 E9"/>
    </vehicle>
    <vehicle id="306" depart="388.62">
        <route edges="E3 -E2 -E1 E0 E8"/>
    </vehicle>
    <vehicle id="307" depart="389.89">
        <route edges="-E9 E2 -E3 -E0 E1 E9"/>
    </vehicle>
    <vehicle id="308" depart="391.16">