<?xml version="1.0" encoding="UTF-8"?>

<!-- generated on 2026-04-09 07:16:21.827671 by Eclipse SUMO randomTrips.py v1.26.0.post998
<configuration>
    <net-file value="/home/ekene/Projects/trafix/sumo/map.net.xml"/>
    <output-trip-file value="/home/ekene/Projects/trafix/sumo/training_demand.rou.xml"/>
    <fringe-factor value="10"/>
    <seed value="28075"/>
    <period value="1.11"/>
</configuration>
-->

<!-- generated on 2026-04-09T07:16:21.794848+03:00 by Eclipse SUMO duarouter v1_26_0+0998-b7a48b454f1
<duarouterConfiguration xmlns:xsi="http://www.w3.org/2001/XMLSchema-instance" xsi:noNamespaceSchemaLocation="http://sumo.dlr.de/xsd/duarouterConfiguration.xsd">

    <input>
        <net-file value="/home/ekene/Projects/trafix/sumo/map.net.xml"/>
        <route-files value="/home/ekene/Projects/trafix/sumo/training_demand.rou.xml"/>
    </input>

    <output>
        <output-file value="routes.rou.xml"/>
        <alternatives-output value="NUL"/>
    </output>

    <time>
        <begin value="0"/>
        <end value="3600.0"/>
    </time>

    <report>
        <no-warnings value="true"/>
        <ignore-errors value="true"/>
        <no-step-log value="true"/>
    </report>

</duarouterConfiguration>
-->

<routes xmlns:xsi="http://www.w3.org/2001/XMLSchema-instance" xsi:noNamespaceSchemaLocation="http://sumo.dlr.de/xsd/routes_file.xsd">
    <vehicle id="0" depart="0.00">
        <route edges="-E7 -E0 E5"/>
    </vehicle>
    <vehicle id="1" depart="1.11">
        <route edges="-E14 -E4 -E1 E6"/>
    </vehicle>
    <vehicle id="2" depart="2.22">
        <route edges="-E1 E0 E8"/>
    </vehicle>
    <vehicle id="3" depart="3.33">
        <route edges="-E8 E3 -E2 E9"/>
    </vehicle>
    <vehicle id="4" depart="4.44">
        <route edges="-E9 -E1 E5"/>
    </vehicle>
    <vehicle id="5" depart="5.55">
        <route edges="-E13 -E4 E2 -E3 -E0 E1 E4 E13"/>
    </vehicle>
    <vehicle id="6" depart="6.66">
        <route edges="-E8 -E0 E1 E2"/>
    </vehicle>
    <vehicle id="7" depart="7.77">
        <route edges="-E13 -E4 E9"/>
    </vehicle>
    <vehicle id="8" depart="8.88">
        <route edges="-E7 E8"/>
    </vehicle>
    <vehicle id="9" depart="9.99">
        <route edges="-E7 -E0 E1 E4 E13"/>
    </vehicle>
    <vehicle id="10" depart="11.10">
        <route edges="-E9 -E1"/>
    </vehicle>
    <vehicle id="11" depart="12.21">
        <route edges="-E14 -E4 E2 -E3 E8"/>
    </vehicle>
    <vehicle id="12" depart="13.32">
        <route edges="-E13 -E4 -E1 E5"/>
    </vehicle>
    <vehicle id="13" depart="14.43">
        <route edges="-E11 -E3 -E0 E1 E2 E11"/>
    </vehicle>
    <vehicle id="14" depart="15.54">
        <route edges="-E3 -E0 E1 E4 E13"/>
    </vehicle>
    <vehicle id="15" depart="16.65">
        <route edges="-E10 -E2 E4 E12"/>
    </vehicle>
    <vehicle id="16" depart="17.76">
        <route edges="-E7 -E0 E1 E2 -E3 E7"/>
    </vehicle>
    <vehicle id="17" depart="18.87">
        <route edges="-E6 E5"/>
    </vehicle>
    <vehicle id="18" depart="19.98">
        <route edges="-E11 -E2 E4 E13"/>
    </vehicle>
    <vehicle id="19" depart="21.09">
        <route edges="-E10 -E2 E4 E12"/>
    </vehicle>
    <vehicle id="20" depart="22.20">
        <route edges="-E7 E8"/>
    </vehicle>
    <vehicle id="21" depart="23.31">
        <route edges="-E11 -E2"/>
    </vehicle>
    <vehicle id="22" depart="24.42">
        <route edges="-E12 -E4 -E1 E5"/>
    </vehicle>
    <vehicle id="23" depart="25.53">
        <route edges="-E5 E1 E4 E13"/>
    </vehicle>
    <vehicle id="24" depart="26.64">
        <route edges="-E12 -E4 E2 -E3 -E0 E1 E4 E12"/>
    </vehicle>
    <vehicle id="25" depart="27.75">
        <route edges="-E7 -E0"/>
    </vehicle>
    <vehicle id="26" depart="28.86">
        <route edges="-E10 -E2 E4 E12"/>
    </vehicle>
    <vehicle id="27" depart="29.97">
        <route edges="-E6 E0 E8"/>
    </vehicle>
    <vehicle id="28" depart="31.08">
        <route edges="-E14 -E4 E2 E10"/>
    </vehicle>
    <vehicle id="29" depart="32.19">
        <route edges="-E10 -E2 E9"/>
    </vehicle>
    <vehicle id="30" depart="33.30">
        <route edges="-E12 -E4 -E1 E0 E7"/>
    </vehicle>
    <vehicle id="31" depart="34.41">
        <route edges="-E5 E0 E7"/>
    </vehicle>
    <vehicle id="32" depart="35.52">
        <route edges="-E11 -E2 E9"/>
    </vehicle>
    <vehicle id="33" depart="36.63">
        <route edges="-E9 E2 E10"/>
    </vehicle>
    <vehicle id="34" depart="37.74">
        <route edges="-E7 -E0 E6"/>
    </vehicle>
    <vehicle id="35" depart="38.85">
        <route edges="-E5 E0 E3 E10"/>
    </vehicle>
    <vehicle id="36" depart="39.96">
        <route edges="-E7 E3 E11"/>
    </vehicle>
    <vehicle id="37" depart="41.07">
        <route edges="-E3 -E0 E6"/>
    </vehicle>
    <vehicle id="38" depart="42.18">
        <route edges="-E7 -E0 E1 E4 E12"/>
    </vehicle>
    <vehicle id="39" depart="43.29">
        <route edges="-E6 E5"/>
    </vehicle>
    <vehicle id="40" depart="44.40">
        <route edges="-E8 E3 -E2 E9"/>
    </vehicle>
    <vehicle id="41" depart="45.51">
        <route edges="-E6 E1 E2 E11"/>
    </vehicle>
    <vehicle id="42" depart="46.62">
        <route edges="-E11 -E3 E8"/>
    </vehicle>
    <vehicle id="43" depart="47.73">
        <route edges="-E12 -E4 E2 -E3 -E0 E1 E4 E12"/>
    </vehicle>
    <vehicle id="44" depart="48.84">
        <route edges="-E6 E0 E7"/>
    </vehicle>
    <vehicle id="45" depart="49.95">
        <route edges="E3 -E2 -E1 E0 E8"/>
    </vehicle>
    <vehicle id="46" depart="51.06">
        <route edges="-E6 E1 E4 E12"/>
    </vehicle>
    <vehicle id="47" depart="52.17">
        <route edges="-E11 E10"/>
    </vehicle>
    <vehicle id="48" depart="53.28">
        <route edges="-E8 E7"/>
    </vehicle>
    <vehicle id="49" depart="54.39">
        <route edges="-E7 E8"/>
    </vehicle>
    <vehicle id="50" depart="55.50">
        <route edges="-E6 E0 E3 E10"/>
    </vehicle>
    <vehicle id="51" depart="56.61">
        <route edges="-E10 -E2 E4 E12"/>
    </vehicle>
    <vehicle id="52" depart="57.72">
        <route edges="-E6 E5"/>
    </vehicle>
    <vehicle id="53" depart="58.83">
        <route edges="-E5 E6"/>
    </vehicle>
    <vehicle id="54" depart="59.94">
        <route edges="-E6 E1 E4 E12"/>
    </vehicle>
    <vehicle id="55" depart="61.05">
        <route edges="-E14 -E4 E2 -E3"/>
    </vehicle>
    <vehicle id="56" depart="62.16">
        <route edges="-E13 -E4 E9"/>
    </vehicle>
    <vehicle id="57" depart="63.27">
        <route edges="E2 -E3 -E0 E1 E4 E14"/>
    </vehicle>
    <vehicle id="58" depart="64.38">
        <route edges="-E10 -E2 -E1 E6"/>
    </vehicle>
    <vehicle id="59" depart="65.49">
        <route edges="-E6 E1 E4 E12"/>
    </vehicle>
    <vehicle id="60" depart="66.60">
        <route edges="-E4 E2 -E3 -E0 E1 E4 E13"/>
    </vehicle>
    <vehicle id="61" depart="67.71">
        <route edges="-E8 -E0 E1 E2 -E3 E8"/>
    </vehicle>
    <vehicle id="62" depart="68.82">
        <route edges="-E10 -E3 E8"/>
    </vehicle>
    <vehicle id="63" depart="69.93">
        <route edges="-E14 -E4 -E1 E0 E7"/>
    </vehicle>
    <vehicle id="64" depart="71.04">
        <route edges="-E12 -E4 E2 E11"/>
    </vehicle>
    <vehicle id="65" depart="72.15">
        <route edges="-E10 E11"/>
    </vehicle>
    <vehicle id="66" depart="73.26">
        <route edges="-E9 E4 E12"/>
    </vehicle>
    <vehicle id="67" depart="74.37">
        <route edges="-E9 -E1 E0 E7"/>
    </vehicle>
    <vehicle id="68" depart="75.48">
        <route edges="-E6 E1 E4 E14"/>
    </vehicle>
    <vehicle id="69" depart="76.59">
        <route edges="-E9 E4 E12"/>
    </vehicle>
    <vehicle id="70" depart="77.70">
        <route edges="-E6 E0 E7"/>
    </vehicle>
    <vehicle id="71" depart="78.81">
        <route edges="-E13 -E4 -E1 E0 E8"/>
    </vehicle>
    <vehicle id="72" depart="79.92">
        <route edges="-E13 -E4 -E1 E0 E3"/>
    </vehicle>
    <vehicle id="73" depart="81.03">
        <route edges="-E10 -E3 E7"/>
    </vehicle>
    <vehicle id="74" depart="82.14">
        <route edges="-E7 -E0 E1 E4 E13"/>
    </vehicle>
    <vehicle id="75" depart="83.25">
        <route edges="-E4 -E1 E5"/>
    </vehicle>
    <vehicle id="76" depart="84.36">
        <route edges="-E5 E0 E3 E10"/>
    </vehicle>
    <vehicle id="77" depart="85.47">
        <route edges="-E9 E2 -E3 E8"/>
    </vehicle>
    <vehicle id="78" depart="86.58">
        <route edges="-E11 -E3 -E0"/>
    </vehicle>
    <vehicle id="79" depart="87.69">
        <route edges="-E6 E0 E7"/>
    </vehicle>
    <vehicle id="80" depart="88.80">
        <route edges="E2 E10"/>
    </vehicle>
    <vehicle id="81" depart="89.91">
        <route edges="-E12 E13"/>
    </vehicle>
    <vehicle id="82" depart="91.02">
        <route edges="-E6 E1 E4 E13"/>
    </vehicle>
    <vehicle id="83" depart="92.13">
        <route edges="-E11 -E2 E9"/>
    </vehicle>
    <vehicle id="84" depart="93.24">
        <route edges="-E14 -E4 E2 E11"/>
    </vehicle>
    <vehicle id="85" depart="94.35">
        <route edges="-E11 -E2 -E1 E6"/>
    </vehicle>
    <vehicle id="86" depart="95.46">
        <route edges="-E8 -E0 E6"/>
    </vehicle>
    <vehicle id="87" depart="96.57">
        <route edges="-E5 E0 E7"/>
    </vehicle>
    <vehicle id="88" depart="97.68">
        <route edges="-E8 -E0 E1 E4 E12"/>
    </vehicle>
    <vehicle id="89" depart="98.79">
        <route edges="-E5 E6"/>
    </vehicle>
    <vehicle id="90" depart="99.90">
        <route edges="-E12 -E4 E2 -E3 E8"/>
    </vehicle>
    <vehicle id="91" depart="101.01">
        <route edges="E2 -E3 E8"/>
    </vehicle>
    <vehicle id="92" depart="102.12">
        <route edges="-E11 -E2 E9"/>
    </vehicle>
    <vehicle id="93" depart="103.23">
        <route edges="-E2 -E1 E6"/>
    </vehicle>
    <vehicle id="94" depart="104.34">
        <route edges="-E6 E0 E7"/>
    </vehicle>
    <vehicle id="95" depart="105.45">
        <route edges="-E9 E4 E13"/>
    </vehicle>
    <vehicle id="96" depart="106.56">
        <route edges="-E14 -E4 -E1 E0 E3"/>
    </vehicle>
    <vehicle id="97" depart="107.67">
        <route edges="-E8 E7"/>
    </vehicle>
    <vehicle id="98" depart="108.78">
        <route edges="-E9 E4 E13"/>
    </vehicle>
    <vehicle id="99" depart="109.89">
        <route edges="-E13 -E4 E2 E10"/>
    </vehicle>
    <vehicle id="100" depart="111.00">
        <route edges="-E13 -E4 E9"/>
    </vehicle>
    <vehicle id="101" depart="112.11">
        <route edges="-E12 E13"/>
    </vehicle>
    <vehicle id="102" depart="113.22">
        <route edges="-E9 E2 -E3 -E0 E1 E9"/>
    </vehicle>
    <vehicle id="103" depart="114.33">
        <route edges="-E10 -E3 -E0 E1 E2 E10"/>
    </vehicle>
    <vehicle id="104" depart="115.44">
        <route edges="-E8 -E0 E1 E4 E13"/>
    </vehicle>
    <vehicle id="105" depart="116.55">
        <route edges="-E14 E12"/>
    </vehicle>
    <vehicle id="106" depart="117.66">
        <route edges="-E11 -E3 -E0 E5"/>
    </vehicle>
    <vehicle id="107" depart="118.77">
        <route edges="-E7 -E0 E1 E4 E14"/>
    </vehicle>
    <vehicle id="108" depart="119.88">
        <route edges="-E14 -E4 E2 -E3 -E0 E1 E4 E14"/>
    </vehicle>
    <vehicle id="109" depart="120.99">
        <route edges="-E13 E12"/>
    </vehicle>
    <vehicle id="110" depart="122.10">
        <route edges="-E7 E3 -E2 E9"/>
    </vehicle>
    <vehicle id="111" depart="123.21">
        <route edges="-E14 -E4 -E1 E6"/>
    </vehicle>
    <vehicle id="112" depart="124.32">
        <route edges="-E14 E13"/>
    </vehicle>
    <vehicle id="113" depart="125.43">
        <route edges="-E8 E3 E11"/>
    </vehicle>
    <vehicle id="114" depart="126.54">
        <route edges="-E11 -E2 E4 E13"/>
    </vehicle>
    <vehicle id="115" depart="127.65">
        <route edges="-E7 -E0 E1 E4 E12"/>
    </vehicle>
    <vehicle id="116" depart="128.76">
        <route edges="-E9 E2 E10"/>
    </vehicle>
    <vehicle id="117" depart="129.87">
        <route edges="-E5 E0 E7"/>
    </vehicle>
    <vehicle id="118" depart="130.98">
        <route edges="E3 -E2 -E1 E0 E7"/>
    </vehicle>
    <vehicle id="119" depart="132.09">
        <route edges="-E13 -E4 E2 E10"/>
    </vehicle>
    <vehicle id="120" depart="133.20">
        <route edges="-E7 E3 E11"/>
    </vehicle>
    <vehicle id="121" depart="134.31">
        <route edges="-E14 E13"/>
    </vehicle>
    <vehicle id="122" depart="135.42">
        <route edges="-E13 E12"/>
    </vehicle>
    <vehicle id="123" depart="136.53">
        <route edges="-E14 -E4 E2 -E3 -E0 E1 E4 E14"/>
    </vehicle>
    <vehicle id="124" depart="137.64">
        <route edges="-E14 -E4 E2 -E3 E8"/>
    </vehicle>
    <vehicle id="125" depart="138.75">
        <route edges="-E6 E5"/>
    </vehicle>
    <vehicle id="126" depart="139.86">
        <route edges="-E6 E1 E9"/>
    </vehicle>
    <vehicle id="127" depart="140.97">
        <route edges="-E8 -E0"/>
    </vehicle>
    <vehicle id="128" depart="142.08">
        <route edges="-E8 -E0 E1 E4 E13"/>
    </vehicle>
    <vehicle id="129" depart="143.19">
        <route edges="-E10 -E3 E7"/>
    </vehicle>
    <vehicle id="130" depart="144.30">
        <route edges="-E11 -E2 E4 E13"/>
    </vehicle>
    <vehicle id="131" depart="145.41">
        <route edges="-E0 E6"/>
    </vehicle>
    <vehicle id="132" depart="146.52">
        <route edges="-E8 -E0 E1 E4 E12"/>
    </vehicle>
    <vehicle id="133" depart="147.63">
        <route edges="-E13 -E4 -E1 E5"/>
    </vehicle>
    <vehicle id="134" depart="148.74">
        <route edges="-E10 -E3 -E0 E5"/>
    </vehicle>
    <vehicle id="135" depart="149.85">
        <route edges="-E11 -E2 E4 E14"/>
    </vehicle>
    <vehicle id="136" depart="150.96">
        <route edges="-E10 -E3 -E0 E5"/>
    </vehicle>
    <vehicle id="137" depart="152.07">
        <route edges="-E0 E6"/>
    </vehicle>
    <vehicle id="138" depart="153.18">
        <route edges="-E10 -E3 E8"/>
    </vehicle>
    <vehicle id="139" depart="154.29">
        <route edges="-E5 E6"/>
    </vehicle>
    <vehicle id="140" depart="155.40">
        <route edges="-E13 -E4 -E1 E0 E7"/>
    </vehicle>
    <vehicle id="141" depart="156.51">
        <route edges="-E12 -E4 E2 E10"/>
    </vehicle>
    <vehicle id="142" depart="157.62">
        <route edges="-E7 -E0 E1 E4 E14"/>
    </vehicle>
    <vehicle id="143" depart="158.73">
        <route edges="-E14 -E4 -E1 E6"/>
    </vehicle>
    <vehicle id="144" depart="159.84">
        <route edges="-E14 -E4 -E1 E0 E7"/>
    </vehicle>
    <vehicle id="145" depart="160.95">
        <route edges="-E10 E11"/>
    </vehicle>
    <vehicle id="146" depart="162.06">
        <route edges="-E13 -E4 -E1 E5"/>
    </vehicle>
    <vehicle id="147" depart="163.17">
        <route edges="-E10 -E3 -E0 E1 E2 E10"/>
    </vehicle>
    <vehicle id="148" depart="164.28">
        <route edges="-E6 E1 E4 E14"/>
    </vehicle>
    <vehicle id="149" depart="165.39">
        <route edges="-E10 -E2 E9"/>
    </vehicle>
    <vehicle id="150" depart="166.50">
        <route edges="E3 -E2 E9"/>
    </vehicle>
    <vehicle id="151" depart="167.61">
        <route edges="-E8 E7"/>
    </vehicle>
    <vehicle id="152" depart="168.72">
        <route edges="-E9 E2 E11"/>
    </vehicle>
    <vehicle id="153" depart="169.83">
        <route edges="-E2 -E1 E0 E3 E10"/>
    </vehicle>
    <vehicle id="154" depart="170.94">
        <route edges="-E7 E3 -E2"/>
    </vehicle>
    <vehicle id="155" depart="172.05">
        <route edges="-E5 E1 E2"/>
    </vehicle>
    <vehicle id="156" depart="173.16">
        <route edges="-E14 -E4 E2 -E3 -E0 E1 E4 E14"/>
    </vehicle>
    <vehicle id="157" depart="174.27">
        <route edges="-E9 E2 E11"/>
    </vehicle>
    <vehicle id="158" depart="175.38">
        <route edges="-E9 E2 E11"/>
    </vehicle>
    <vehicle id="159" depart="176.49">
        <route edges="-E9 -E1 E0 E7"/>
    </vehicle>
    <vehicle id="160" depart="177.60">
        <route edges="-E4 E2 -E3 -E0 E1 E4 E14"/>
    </vehicle>
    <vehicle id="161" depart="178.71">
        <route edges="-E13 -E4 -E1 E5"/>
    </vehicle>
    <vehicle id="162" depart="179.82">
        <route edges="-E10 -E2 E9"/>
    </vehicle>
    <vehicle id="163" depart="180.93">
        <route edges="-E6 E1 E4 E14"/>
    </vehicle>
    <vehicle id="164" depart="182.04">
        <route edges="-E9 E4 E14"/>
    </vehicle>
    <vehicle id="165" depart="183.15">
        <route edges="-E7 E3 E11"/>
    </vehicle>
    <vehicle id="166" depart="184.26">
        <route edges="-E6 E1 E9"/>
    </vehicle>
    <vehicle id="167" depart="185.37">
        <route edges="-E14 -E4 -E1 E0 E7"/>
    </vehicle>
    <vehicle id="168" depart="186.48">
        <route edges="-E12 -E4 -E1 E0 E7"/>
    </vehicle>
    <vehicle id="169" depart="187.59">
        <route edges="-E2 -E1 E6"/>
    </vehicle>
    <vehicle id="170" depart="188.70">
        <route edges="-E12 -E4 E2 E10"/>
    </vehicle>
    <vehicle id="171" depart="189.81">
        <route edges="-E10 -E3 E7"/>
    </vehicle>
    <vehicle id="172" depart="190.92">
        <route edges="-E11 -E2 E4 E12"/>
    </vehicle>
    <vehicle id="173" depart="192.03">
        <route edges="-E6 E1 E4 E13"/>
    </vehicle>
    <vehicle id="174" depart="193.14">
        <route edges="E4 E13"/>
    </vehicle>
    <vehicle id="175" depart="194.25">
        <route edges="-E14 -E4 -E1"/>
    </vehicle>
    <vehicle id="176" depart="195.36">
        <route edges="-E3 -E0 E5"/>
    </vehicle>
    <vehicle id="177" depart="196.47">
        <route edges="-E8 -E0 E1 E4 E14"/>
    </vehicle>
    <vehicle id="178" depart="197.58">
        <route edges="-E11 -E2 E4 E12"/>
    </vehicle>
    <vehicle id="179" depart="198.69">
        <route edges="-E6 E5"/>
    </vehicle>
    <vehicle id="180" depart="199.80">
        <route edges="-E13 E14"/>
    </vehicle>
    <vehicle id="181" depart="200.91">
        <route edges="-E9 E2 E10"/>
    </vehicle>
    <vehicle id="182" depart="202.02">
        <route edges="-E14 -E4 -E1 E6"/>
    </vehicle>
    <vehicle id="183" depart="203.13">
        <route edges="-E13 -E4 E2 -E3"/>
    </vehicle>
    <vehicle id="184" depart="204.24">
        <route edges="-E8 -E0 E1 E2 -E3 E8"/>
    </vehicle>
    <vehicle id="185" depart="205.35">
        <route edges="-E9 E2 -E3 E8"/>
    </vehicle>
    <vehicle id="186" depart="206.46">
        <route edges="-E5 E1 E2 -E3 -E0 E5"/>
    </vehicle>
    <vehicle id="187" depart="207.57">
        <route edges="-E4 -E1 E0"/>
    </vehicle>
    <vehicle id="188" depart="208.68">
        <route edges="-E5 E0 E7"/>
    </vehicle>
    <vehicle id="189" depart="209.79">
        <route edges="-E8 -E0 E6"/>
    </vehicle>
    <vehicle id="190" depart="210.90">
        <route edges="-E13 -E4 -E1 E0 E7"/>
    </vehicle>
    <vehicle id="191" depart="212.01">
        <route edges="-E13 -E4 E2 E11"/>
    </vehicle>
    <vehicle id="192" depart="213.12">
        <route edges="-E11 -E2 E4 E13"/>
    </vehicle>
    <vehicle id="193" depart="214.23">
        <route edges="-E12 -E4 -E1"/>
    </vehicle>
    <vehicle id="194" depart="215.34">
        <route edges="-E7 -E0 E1 E4 E12"/>
    </vehicle>
    <vehicle id="195" depart="216.45">
        <route edges="-E13 -E4 E2 E10"/>
    </vehicle>
    <vehicle id="196" depart="217.56">
        <route edges="-E11 -E2 E4 E12"/>
    </vehicle>
    <vehicle id="197" depart="218.67">
        <route edges="-E12 E14"/>
    </vehicle>
    <vehicle id="198" depart="219.78">
        <route edges="-E9 E4 E13"/>
    </vehicle>
    <vehicle id="199" depart="220.89">
        <route edges="-E11 -E2 E4 E12"/>
    </vehicle>
    <vehicle id="200" depart="222.00">
        <route edges="-E11 -E3 -E0 E1"/>
    </vehicle>
    <vehicle id="201" depart="223.11">
        <route edges="-E5 E1"/>
    </vehicle>
    <vehicle id="202" depart="224.22">
        <route edges="-E6 E1 E4 E12"/>
    </vehicle>
    <vehicle id="203" depart="225.33">
        <route edges="-E1 E0 E8"/>
    </vehicle>
    <vehicle id="204" depart="226.44">
        <route edges="-E11 -E3 -E0 E5"/>
    </vehicle>
    <vehicle id="205" depart="227.55">
        <route edges="-E12 -E4 -E1 E0 E7"/>
    </vehicle>
    <vehicle id="206" depart="228.66">
        <route edges="-E6 E0 E8"/>
    </vehicle>
    <vehicle id="207" depart="229.77">
        <route edges="-E14 E13"/>
    </vehicle>
    <vehicle id="208" depart="230.88">
        <route edges="-E10 -E2 E4 E14"/>
    </vehicle>
    <vehicle id="209" depart="231.99">
        <route edges="-E14 -E4 E9"/>
    </vehicle>
    <vehicle id="210" depart="233.10">
        <route edges="-E14 E13"/>
    </vehicle>
    <vehicle id="211" depart="234.21">
        <route edges="-E6 E1 E4 E14"/>
    </vehicle>
    <vehicle id="212" depart="235.32">
        <route edges="-E6 E0"/>
    </vehicle>
    <vehicle id="213" depart="236.43">
        <route edges="-E11 -E2 -E1 E6"/>
    </vehicle>
    <vehicle id="214" depart="237.54">
        <route edges="-E13 -E4 -E1 E5"/>
    </vehicle>
    <vehicle id="215" depart="238.65">
        <route edges="-E11 -E2 E4 E12"/>
    </vehicle>
    <vehicle id="216" depart="239.76">
        <route edges="-E6 E0 E7"/>
    </vehicle>
    <vehicle id="217" depart="240.87">
        <route edges="-E10 -E2 E4 E13"/>
    </vehicle>
    <vehicle id="218" depart="241.98">
        <route edges="-E9 E2 E10"/>
    </vehicle>
    <vehicle id="219" depart="243.09">
        <route edges="-E5 E6"/>
    </vehicle>
    <vehicle id="220" depart="244.20">
        <route edges="-E3 E8"/>
    </vehicle>
    <vehicle id="221" depart="245.31">
        <route edges="-E7 -E0 E1 E4 E12"/>
    </vehicle>
    <vehicle id="222" depart="246.42">
        <route edges="-E7 -E0 E5"/>
    </vehicle>
    <vehicle id="223" depart="247.53">
        <route edges="-E6 E1 E2"/>
    </vehicle>
    <vehicle id="224" depart="248.64">
        <route edges="-E5 E1 E9"/>
    </vehicle>
    <vehicle id="225" depart="249.75">
        <route edges="-E8 E3 -E2 E9"/>
    </vehicle>
    <vehicle id="226" depart="250.86">
        <route edges="-E13 -E4 -E1 E0 E3 -E2"/>
    </vehicle>
    <vehicle id="227" depart="251.97">
        <route edges="-E5 E0 E8"/>
    </vehicle>
    <vehicle id="228" depart="253.08">
        <route edges="-E10 -E3 -E0 E5"/>
    </vehicle>
    <vehicle id="229" depart="254.19">
        <route edges="-E13 -E4 E2 -E3 -E0 E1 E4 E13"/>
    </vehicle>
    <vehicle id="230" depart="255.30">
        <route edges="-E8 -E0 E1 E2 -E3 E8"/>
    </vehicle>
    <vehicle id="231" depart="256.41">
        <route edges="-E6 E1 E2 -E3 -E0 E6"/>
    </vehicle>
    <vehicle id="232" depart="257.52">
        <route edges="-E10 -E2 E4 E12"/>
    </vehicle>
    <vehicle id="233" depart="258.63">
        <route edges="-E10 -E3 -E0 E5"/>
    </vehicle>
    <vehicle id="234" depart="259.74">
        <route edges="-E12 E14"/>
    </vehicle>
    <vehicle id="235" depart="260.85">
        <route edges="-E8 E3 -E2 E9"/>
    </vehicle>
    <vehicle id="236" depart="261.96">
        <route edges="-E13 E12"/>
    </vehicle>
    <vehicle id="237" depart="263.07">
        <route edges="-E14 -E4 E9"/>
    </vehicle>
    <vehicle id="238" depart="264.18">
        <route edges="-E13 -E4 E2 -E3 -E0 E1 E4 E13"/>
    </vehicle>
    <vehicle id="239" depart="265.29">
        <route edges="-E13 -E4 E2 -E3 -E0 E1 E4 E13"/>
    </vehicle>
    <vehicle id="240" depart="266.40">
        <route edges="-E13 E14"/>
    </vehicle>
    <vehicle id="241" depart="267.51">
        <route edges="-E7 -E0 E5"/>
    </vehicle>
    <vehicle id="242" depart="268.62">
        <route edges="-E0 E6"/>
    </vehicle>
    <vehicle id="243" depart="269.73">
        <route edges="-E9 E2 -E3 -E0 E1 E9"/>
    </vehicle>
    <vehicle id="244" depart="270.84">
        <route edges="-E14 E13"/>
    </vehicle>
    <vehicle id="245" depart="271.95">
        <route edges="E2 -E3 -E0"/>
    </vehicle>
    <vehicle id="246" depart="273.06">
        <route edges="-E8 E3 -E2 E9"/>
    </vehicle>
    <vehicle id="247" depart="274.17">
        <route edges="-E14 -E4 E9"/>
    </vehicle>
    <vehicle id="248" depart="275.28">
        <route edges="-E9 E4 E13"/>
    </vehicle>
    <vehicle id="249" depart="276.39">
        <route edges="-E5 E0 E7"/>
    </vehicle>
    <vehicle id="250" depart="277.50">
        <route edges="-E12 -E4 -E1 E5"/>
    </vehicle>
    <vehicle id="251" depart="278.61">
        <route edges="-E5 E1 E4 E12"/>
    </vehicle>
    <vehicle id="252" depart="279.72">
        <route edges="-E10 -E3 E7"/>
    </vehicle>
    <vehicle id="253" depart="280.83">
        <route edges="-E7 E3 E10"/>
    </vehicle>
    <vehicle id="254" depart="281.94">
        <route edges="-E9 E4 E14"/>
    </vehicle>
    <vehicle id="255" depart="283.05">
        <route edges="-E9 E2 -E3 -E0 E1 E9"/>
    </vehicle>
    <vehicle id="256" depart="284.16">
        <route edges="-E3 -E0 E6"/>
    </vehicle>
    <vehicle id="257" depart="285.27">
        <route edges="-E7 E3 E10"/>
    </vehicle>
    <vehicle id="258" depart="286.38">
        <route edges="-E11 -E2 E9"/>
    </vehicle>
    <vehicle id="259" depart="287.49">
        <route edges="E3 -E2 E4 E12"/>
    </vehicle>
    <vehicle id="260" depart="288.60">
        <route edges="-E13 -E4 -E1 E5"/>
    </vehicle>
    <vehicle id="261" depart="289.71">
        <route edges="-E6 E1 E9"/>
    </vehicle>
    <vehicle id="262" depart="290.82">
        <route edges="-E7 E3 E11"/>
    </vehicle>
    <vehicle id="263" depart="291.93">
        <route edges="-E9 E2 -E3 -E0 E1 E9"/>
    </vehicle>
    <vehicle id="264" depart="293.04">
        <route edges="-E14 -E4 E2 -E3 -E0 E1"/>
    </vehicle>
    <vehicle id="265" depart="294.15">
        <route edges="-E9 E2"/>
    </vehicle>
    <vehicle id="266" depart="295.26">
        <route edges="-E9 E2 E10"/>
    </vehicle>
    <vehicle id="267" depart="296.37">
        <route edges="-E4 -E1 E0 E7"/>
    </vehicle>
    <vehicle id="268" depart="297.48">
        <route edges="-E11 -E2 -E1 E6"/>
    </vehicle>
    <vehicle id="269" depart="298.59">
        <route edges="-E10 -E3 E8"/>
    </vehicle>
    <vehicle id="270" depart="299.70">
        <route edges="-E12 -E4 E2 -E3 E8"/>
    </vehicle>
    <vehicle id="271" depart="300.81">
        <route edges="-E14 -E4 E2 E11"/>
    </vehicle>
    <vehicle id="272" depart="301.92">
        <route edges="-E7 -E0 E1 E4 E12"/>
    </vehicle>
    <vehicle id="273" depart="303.03">
        <route edges="-E7 -E0 E1 E4 E14"/>
    </vehicle>
    <vehicle id="274" depart="304.14">
        <route edges="-E10 -E3 -E0 E5"/>
    </vehicle>
    <vehicle id="275" depart="305.25">
        <route edges="-E13 -E4 E2 -E3 -E0 E1 E4 E13"/>
    </vehicle>
    <vehicle id="276" depart="306.36">
        <route edges="-E9 E2 -E3 -E0 E1 E9"/>
    </vehicle>
    <vehicle id="277" depart="307.47">
        <route edges="-E12 -E4 E2 E11"/>
    </vehicle>
    <vehicle id="278" depart="308.58">
        <route edges="-E10 -E2 -E1 E6"/>
    </vehicle>
    <vehicle id="279" depart="309.69">
        <route edges="-E8 -E0 E1 E4 E12"/>
    </vehicle>
    <vehicle id="280" depart="310.80">
        <route edges="-E12 E13"/>
    </vehicle>
    <vehicle id="281" depart="311.91">
        <route edges="-E11 E10"/>
    </vehicle>
    <vehicle id="282" depart="313.02">
        <route edges="-E8 -E0 E1 E4 E14"/>
    </vehicle>
    <vehicle id="283" depart="314.13">
        <route edges="-E11 -E2 E4 E14"/>
    </vehicle>
    <vehicle id="284" depart="315.24">
        <route edges="-E9 E4"/>
    </vehicle>
    <vehicle id="285" depart="316.35">
        <route edges="-E14 -E4 E2 E11"/>
    </vehicle>
    <vehicle id="286" depart="317.46">
        <route edges="-E4 E2 -E3"/>
    </vehicle>
    <vehicle id="287" depart="318.57">
        <route edges="-E1 E0 E8"/>
    </vehicle>
    <vehicle id="288" depart="319.68">
        <route edges="-E6 E0 E3 E10"/>
    </vehicle>
    <vehicle id="289" depart="320.79">
        <route edges="-E6 E1 E2 E11"/>
    </vehicle>
    <vehicle id="290" depart="321.90">
        <route edges="-E5 E1 E4 E14"/>
    </vehicle>
    <vehicle id="291" depart="323.01">
        <route edges="-E14 E13"/>
    </vehicle>
    <vehicle id="292" depart="324.12">
        <route edges="-E12 -E4 E2 E11"/>
    </vehicle>
    <vehicle id="293" depart="325.23">
        <route edges="-E13 E14"/>
    </vehicle>
    <vehicle id="294" depart="326.34">
        <route edges="-E7 -E0 E1"/>
    </vehicle>
    <vehicle id="295" depart="327.45">
        <route edges="-E8 -E0 E1 E4 E13"/>
    </vehicle>
    <vehicle id="296" depart="328.56">
        <route edges="-E12 -E4 E9"/>
    </vehicle>
    <vehicle id="297" depart="329.67">
        <route edges="-E8 E3 -E2"/>
    </vehicle>
    <vehicle id="298" depart="330.78">
        <route edges="-E3 -E0 E1 E2 E10"/>
    </vehicle>
    <vehicle id="299" depart="331.89">
        <route edges="-E9 E4 E13"/>
    </vehicle>
    <vehicle id="300" depart="333.00">
        <route edges="-E6 E5"/>
    </vehicle>
    <vehicle id="301" depart="334.11">
        <route edges="-E9 E2"/>
    </vehicle>
    <vehicle id="302" depart="335.22">
        <route edges="-E10 -E3 E8"/>
    </vehicle>
    <vehicle id="303" depart="336.33">
        <route edges="-E9 E2 -E3 E8"/>
    </vehicle>
    <vehicle id="304" depart="337.44">
        <route edges="-E4 -E1 E0"/>
    </vehicle>
    <vehicle id="305" depart="338.55">
        <route edges="-E7 E3 -E2 E9"/>
    </vehicle>
    <vehicle id="306" depart="339.66">
        <route edges="-E12 E13"/>
    </vehicle>
    <vehicle id="307" depart="340.77">
        <route edges="-E5 E0 E8"/>
    </vehicle>
    <vehicle id="308" depart="341.88">
        <route edges="-E9 E4 E14"/>
    </vehicle>
    <vehicle id="309" depart="342.99">
        <route edges="-E9 E2 -E3 -E0 E1"/>
    </vehicle>