<?xml version="1.0" encoding="UTF-8"?>

<!-- generated on 2026-04-19 11:07:21.117188 by Eclipse SUMO randomTrips.py v1_26_0+0000-fa7df22d7f1
<configuration>
    <net-file value="C:\Users\Furkan\Desktop\traficies\trafix\sumo\map.net.xml"/>
    <output-trip-file value="C:\Users\Furkan\Desktop\traficies\trafix\sumo\training_demand.rou.xml"/>
    <fringe-factor value="10"/>
    <seed value="72103"/>
    <period value="1.23"/>
</configuration>
-->

<!-- generated on 2026-04-19T11:07:21.009185+03:00 by Eclipse SUMO duarouter 1.26.0
<duarouterConfiguration xmlns:xsi="http://www.w3.org/2001/XMLSchema-instance" xsi:noNamespaceSchemaLocation="http://sumo.dlr.de/xsd/duarouterConfiguration.xsd">

    <input>
        <net-file value="C:\Users\Furkan\Desktop\traficies\trafix\sumo\map.net.xml"/>
        <route-files value="C:\Users\Furkan\Desktop\traficies\trafix\sumo\training_demand.rou.xml"/>
    </input>

    <output>
        <output-file value="routes.rou.xml"/>
        <alternatives-output value="NUL"/>
    </output>

    <time>
        <begin value="0"/>
        <end value="3600.0"/>
    </time>

    <report>
        <no-warnings value="true"/>
        <ignore-errors value="true"/>
        <no-step-log value="true"/>
    </report>

</duarouterConfiguration>
-->

<routes xmlns:xsi="http://www.w3.org/2001/XMLSchema-instance" xsi:noNamespaceSchemaLocation="http://sumo.dlr.de/xsd/routes_file.xsd">
    <vehicle id="0" depart="0.00">
        <route edges="-E12 -E4 -E1 E6"/>
    </vehicle>
    <vehicle id="1" depart="1.23">
        <route edges="-E7 E3 E10"/>
    </vehicle>
    <vehicle id="2" depart="2.46">
        <route edges="-E10 -E2 E9"/>
    </vehicle>
    <vehicle id="3" depart="3.69">
        <route edges="-E5 E1 E4 E13"/>
    </vehicle>
    <vehicle id="4" depart="4.92">
        <route edges="-E8 -E0 E6"/>
    </vehicle>
    <vehicle id="5" depart="6.15">
        <route edges="-E11 -E2 E4 E13"/>
    </vehicle>
    <vehicle id="6" depart="7.38">
        <route edges="-E14 -E4 -E1 E6"/>
    </vehicle>
    <vehicle id="7" depart="8.61">
        <route edges="-E10 -E2 E4 E13"/>
    </vehicle>
    <vehicle id="8" depart="9.84">
        <route edges="-E10 -E3 -E0 E1 E2 E10"/>
    </vehicle>
    <vehicle id="9" depart="11.07">
        <route edges="-E0 E5"/>
    </vehicle>
    <vehicle id="10" depart="12.30">
        <route edges="-E11 -E2 -E1 E6"/>
    </vehicle>
    <vehicle id="11" depart="13.53">
        <route edges="-E11 -E2 E4 E13"/>
    </vehicle>
    <vehicle id="12" depart="14.76">
        <route edges="-E14 -E4 E9"/>
    </vehicle>
    <vehicle id="13" depart="15.99">
        <route edges="-E7 E8"/>
    </vehicle>
    <vehicle id="14" depart="17.22">
        <route edges="-E12 -E4 E2 -E3 E8"/>
    </vehicle>
    <vehicle id="15" depart="18.45">
        <route edges="-E10 -E2 E4 E12"/>
    </vehicle>
    <vehicle id="16" depart="19.68">
        <route edges="-E14 -E4 E2 E10"/>
    </vehicle>
    <vehicle id="17" depart="20.91">
        <route edges="-E12 -E4 -E1 E0 E7"/>
    </vehicle>
    <vehicle id="18" depart="22.14">
        <route edges="-E5 E1 E4 E14"/>
    </vehicle>
    <vehicle id="19" depart="23.37">
        <route edges="-E9 E4 E14"/>
    </vehicle>
    <vehicle id="20" depart="24.60">
        <route edges="-E14 -E4 E2 -E3 E8"/>
    </vehicle>
    <vehicle id="21" depart="25.83">
        <route edges="E3 -E2 -E1 E0 E8"/>
    </vehicle>
    <vehicle id="22" depart="27.06">
        <route edges="-E10 -E3 -E0 E5"/>
    </vehicle>
    <vehicle id="23" depart="28.29">
        <route edges="-E12 -E4 -E1 E6"/>
    </vehicle>
    <vehicle id="24" depart="29.52">
        <route edges="-E9 E2 E10"/>
    </vehicle>
    <vehicle id="25" depart="30.75">
        <route edges="-E5 E0 E3 E10"/>
    </vehicle>
    <vehicle id="26" depart="31.98">
        <route edges="-E12 -E4 E2 E10"/>
    </vehicle>
    <vehicle id="27" depart="33.21">
        <route edges="-E14 E13"/>
    </vehicle>
    <vehicle id="28" depart="34.44">
        <route edges="-E8 -E0 E1 E4 E12"/>
    </vehicle>
    <vehicle id="29" depart="35.67">
        <route edges="-E12 -E4 -E1 E5"/>
    </vehicle>
    <vehicle id="30" depart="36.90">
        <route edges="-E5 E0 E8"/>
    </vehicle>
    <vehicle id="31" depart="38.13">
        <route edges="-E6 E0 E7"/>
    </vehicle>
    <vehicle id="32" depart="39.36">
        <route edges="-E10 -E2 E4 E14"/>
    </vehicle>
    <vehicle id="33" depart="40.59">
        <route edges="-E13 -E4 -E1 E0 E3 -E2"/>
    </vehicle>
    <vehicle id="34" depart="41.82">
        <route edges="-E10 -E2 -E1 E6"/>
    </vehicle>
    <vehicle id="35" depart="43.05">
        <route edges="-E13 E14"/>
    </vehicle>
    <vehicle id="36" depart="44.28">
        <route edges="-E10 -E3 E8"/>
    </vehicle>
    <vehicle id="37" depart="45.51">
        <route edges="E3 -E2 E9"/>
    </vehicle>
    <vehicle id="38" depart="46.74">
        <route edges="-E13 -E4 E2 E10"/>
    </vehicle>
    <vehicle id="39" depart="47.97">
        <route edges="-E7 E8"/>
    </vehicle>
    <vehicle id="40" depart="49.20">
        <route edges="-E13 E12"/>
    </vehicle>
    <vehicle id="41" depart="50.43">
        <route edges="-E8 -E0 E6"/>
    </vehicle>
    <vehicle id="42" depart="51.66">
        <route edges="-E7 E3 E10"/>
    </vehicle>
    <vehicle id="43" depart="52.89">
        <route edges="-E4 -E1 E5"/>
    </vehicle>
    <vehicle id="44" depart="54.12">
        <route edges="-E13 -E4 E2 E10"/>
    </vehicle>
    <vehicle id="45" depart="55.35">
        <route edges="-E11 -E2 E4 E13"/>
    </vehicle>
    <vehicle id="46" depart="56.58">
        <route edges="-E11 E10"/>
    </vehicle>
    <vehicle id="47" depart="57.81">
        <route edges="-E12 -E4 -E1 E5"/>
    </vehicle>
    <vehicle id="48" depart="59.04">
        <route edges="-E0 E1 E2 E10"/>
    </vehicle>
    <vehicle id="49" depart="60.27">
        <route edges="-E10 -E2 E4 E13"/>
    </vehicle>
    <vehicle id="50" depart="61.50">
        <route edges="-E5 E1 E4 E14"/>
    </vehicle>
    <vehicle id="51" depart="62.73">
        <route edges="-E9 E4 E12"/>
    </vehicle>
    <vehicle id="52" depart="63.96">
        <route edges="-E13 -E4 E9"/>
    </vehicle>
    <vehicle id="53" depart="65.19">
        <route edges="-E9 E2 E10"/>
    </vehicle>
    <vehicle id="54" depart="66.42">
        <route edges="-E3 E7"/>
    </vehicle>
    <vehicle id="55" depart="67.65">
        <route edges="-E5 E1 E4 E13"/>
    </vehicle>
    <vehicle id="56" depart="68.88">
        <route edges="-E8 E3 -E2 E9"/>
    </vehicle>
    <vehicle id="57" depart="70.11">
        <route edges="-E8 -E0 E1 E4 E13"/>
    </vehicle>
    <vehicle id="58" depart="71.34">
        <route edges="-E11 -E2 E4 E14"/>
    </vehicle>
    <vehicle id="59" depart="72.57">
        <route edges="-E6 E1 E4 E12"/>
    </vehicle>
    <vehicle id="60" depart="73.80">
        <route edges="-E13 -E4 -E1 E0 E7"/>
    </vehicle>
    <vehicle id="61" depart="75.03">
        <route edges="-E8 E3 E10"/>
    </vehicle>
    <vehicle id="62" depart="76.26">
        <route edges="-E5 E1 E2 -E3 -E0 E5"/>
    </vehicle>
    <vehicle id="63" depart="77.49">
        <route edges="-E11 -E2 -E1 E6"/>
    </vehicle>
    <vehicle id="64" depart="78.72">
        <route edges="-E7 -E0 E1 E4 E13"/>
    </vehicle>
    <vehicle id="65" depart="79.95">
        <route edges="-E13 -E4 -E1 E0 E8"/>
    </vehicle>
    <vehicle id="66" depart="81.18">
        <route edges="-E11 -E3 -E0 E5"/>
    </vehicle>
    <vehicle id="67" depart="82.41">
        <route edges="-E6 E5"/>
    </vehicle>
    <vehicle id="68" depart="83.64">
        <route edges="-E5 E1 E4 E12"/>
    </vehicle>
    <vehicle id="69" depart="84.87">
        <route edges="-E14 -E4 E2 -E3"/>
    </vehicle>
    <vehicle id="70" depart="86.10">
        <route edges="-E11 -E3 E7"/>
    </vehicle>
    <vehicle id="71" depart="87.33">
        <route edges="-E11 -E2 E9"/>
    </vehicle>
    <vehicle id="72" depart="88.56">
        <route edges="-E12 -E4 -E1 E0 E3 -E2"/>
    </vehicle>
    <vehicle id="73" depart="89.79">
        <route edges="-E9 -E1 E5"/>
    </vehicle>
    <vehicle id="74" depart="91.02">
        <route edges="-E5 E1 E4 E12"/>
    </vehicle>
    <vehicle id="75" depart="92.25">
        <route edges="-E12 -E4 E2 -E3 -E0 E1 E4 E12"/>
    </vehicle>
    <vehicle id="76" depart="93.48">
        <route edges="-E5 E0 E3 E10"/>
    </vehicle>
    <vehicle id="77" depart="94.71">
        <route edges="-E12 -E4 E2 -E3 E8"/>
    </vehicle>
    <vehicle id="78" depart="95.94">
        <route edges="-E12 -E4 E2 E10"/>
    </vehicle>
    <vehicle id="79" depart="97.17">
        <route edges="-E6 E5"/>
    </vehicle>
    <vehicle id="80" depart="98.40">
        <route edges="-E8 -E0 E1 E4 E13"/>
    </vehicle>
    <vehicle id="81" depart="99.63">
        <route edges="-E12 -E4 E2 E11"/>
    </vehicle>
    <vehicle id="82" depart="100.86">
        <route edges="-E13 -E4 -E1 E5"/>
    </vehicle>
    <vehicle id="83" depart="102.09">
        <route edges="-E14 E12"/>
    </vehicle>
    <vehicle id="84" depart="103.32">
        <route edges="-E11 -E2 E4 E13"/>
    </vehicle>
    <vehicle id="85" depart="104.55">
        <route edges="-E13 E12"/>
    </vehicle>
    <vehicle id="86" depart="105.78">
        <route edges="-E8 -E0 E1 E4 E13"/>
    </vehicle>
    <vehicle id="87" depart="107.01">
        <route edges="-E7 -E0 E1 E4 E12"/>
    </vehicle>
    <vehicle id="88" depart="108.24">
        <route edges="-E9 E4 E12"/>
    </vehicle>
    <vehicle id="89" depart="109.47">
        <route edges="-E6 E1 E4 E13"/>
    </vehicle>
    <vehicle id="90" depart="110.70">
        <route edges="-E7 E3 E10"/>
    </vehicle>
    <vehicle id="91" depart="111.93">
        <route edges="-E9 E4 E12"/>
    </vehicle>
    <vehicle id="92" depart="113.16">
        <route edges="-E11 -E3 -E0 E1 E2 E11"/>
    </vehicle>
    <vehicle id="93" depart="114.39">
        <route edges="-E13 -E4 -E1 E0 E8"/>
    </vehicle>
    <vehicle id="94" depart="115.62">
        <route edges="-E12 -E4 -E1 E6"/>
    </vehicle>
    <vehicle id="95" depart="116.85">
        <route edges="-E11 -E2 E4 E12"/>
    </vehicle>
    <vehicle id="96" depart="118.08">
        <route edges="-E7 E8"/>
    </vehicle>
    <vehicle id="97" depart="119.31">
        <route edges="-E13 -E4 -E1 E5"/>
    </vehicle>
    <vehicle id="98" depart="120.54">
        <route edges="-E13 -E4 -E1 E6"/>
    </vehicle>
    <vehicle id="99" depart="121.77">
        <route edges="-E10 -E3 E7"/>
    </vehicle>
    <vehicle id="100" depart="123.00">
        <route edges="-E5 E6"/>
    </vehicle>
    <vehicle id="101" depart="124.23">
        <route edges="-E12 -E4 -E1 E0 E7"/>
    </vehicle>
    <vehicle id="102" depart="125.46">
        <route edges="-E13 -E4 E9"/>
    </vehicle>
    <vehicle id="103" depart="126.69">
        <route edges="-E13 -E4 E2 E10"/>
    </vehicle>
    <vehicle id="104" depart="127.92">
        <route edges="-E12 E13"/>
    </vehicle>
    <vehicle id="105" depart="129.15">
        <route edges="-E13 E14"/>
    </vehicle>
    <vehicle id="106" depart="130.38">
        <route edges="-E8 E7"/>
    </vehicle>
    <vehicle id="107" depart="131.61">
        <route edges="-E5 E0 E3"/>
    </vehicle>
    <vehicle id="108" depart="132.84">
        <route edges="-E9 E2 E10"/>
    </vehicle>
    <vehicle id="109" depart="134.07">
        <route edges="E3 -E2 -E1 E0 E8"/>
    </vehicle>
    <vehicle id="110" depart="135.30">
        <route edges="-E6 E1 E4 E14"/>
    </vehicle>
    <vehicle id="111" depart="136.53">
        <route edges="-E5 E0 E3 E10"/>
    </vehicle>
    <vehicle id="112" depart="137.76">
        <route edges="-E12 E13"/>
    </vehicle>
    <vehicle id="113" depart="138.99">
        <route edges="-E9 -E1 E0 E7"/>
    </vehicle>
    <vehicle id="114" depart="140.22">
        <route edges="-E5 E1 E4 E14"/>
    </vehicle>
    <vehicle id="115" depart="141.45">
        <route edges="-E13 E12"/>
    </vehicle>
    <vehicle id="116" depart="142.68">
        <route edges="-E7 E3 E11"/>
    </vehicle>
    <vehicle id="117" depart="143.91">
        <route edges="-E10 -E3 E7"/>
    </vehicle>
    <vehicle id="118" depart="145.14">
        <route edges="-E7 -E0 E1 E4 E14"/>
    </vehicle>
    <vehicle id="119" depart="146.37">
        <route edges="-E13 -E4 -E1 E0 E8"/>
    </vehicle>
    <vehicle id="120" depart="147.60">
        <route edges="-E6 E1 E4"/>
    </vehicle>
    <vehicle id="121" depart="148.83">
        <route edges="-E8 -E0 E1 E4 E12"/>
    </vehicle>
    <vehicle id="122" depart="150.06">
        <route edges="-E12 -E4 E2 E11"/>
    </vehicle>
    <vehicle id="123" depart="151.29">
        <route edges="-E14 -E4 -E1 E6"/>
    </vehicle>
    <vehicle id="124" depart="152.52">
        <route edges="-E9 E2 -E3 E8"/>
    </vehicle>
    <vehicle id="125" depart="153.75">
        <route edges="-E13 -E4 E2 -E3 -E0 E1 E4 E13"/>
    </vehicle>
    <vehicle id="126" depart="154.98">
        <route edges="-E6 E1 E4 E13"/>
    </vehicle>
    <vehicle id="127" depart="156.21">
        <route edges="-E10 -E3 E8"/>
    </vehicle>
    <vehicle id="128" depart="157.44">
        <route edges="E2 -E3 -E0 E6"/>
    </vehicle>
    <vehicle id="129" depart="158.67">
        <route edges="-E14 -E4 -E1 E0 E3 -E2"/>
    </vehicle>
    <vehicle id="130" depart="159.90">
        <route edges="-E14 -E4 E2 -E3 -E0 E1 E4 E14"/>
    </vehicle>
    <vehicle id="131" depart="161.13">
        <route edges="-E6 E1 E2 -E3 -E0 E6"/>
    </vehicle>
    <vehicle id="132" depart="162.36">
        <route edges="-E11 -E2 E9"/>
    </vehicle>
    <vehicle id="133" depart="163.59">
        <route edges="-E13 -E4 E2 -E3 -E0 E1 E4 E13"/>
    </vehicle>
    <vehicle id="134" depart="164.82">
        <route edges="-E8 E7"/>
    </vehicle>
    <vehicle id="135" depart="166.05">
        <route edges="-E14 -E4 -E1 E5"/>
    </vehicle>
    <vehicle id="136" depart="167.28">
        <route edges="-E11 -E3 E7"/>
    </vehicle>
    <vehicle id="137" depart="168.51">
        <route edges="-E11 -E2 E4 E13"/>
    </vehicle>
    <vehicle id="138" depart="169.74">
        <route edges="-E6 E1 E2 -E3 -E0 E6"/>
    </vehicle>
    <vehicle id="139" depart="170.97">
        <route edges="-E7 E3 E10"/>
    </vehicle>
    <vehicle id="140" depart="172.20">
        <route edges="-E14 E13"/>
    </vehicle>
    <vehicle id="141" depart="173.43">
        <route edges="-E9 E2 E10"/>
    </vehicle>
    <vehicle id="142" depart="174.66">
        <route edges="-E6 E1 E2"/>
    </vehicle>
    <vehicle id="143" depart="175.89">
        <route edges="-E13 E12"/>
    </vehicle>
    <vehicle id="144" depart="177.12">
        <route edges="-E8 E3 E11"/>
    </vehicle>
    <vehicle id="145" depart="178.35">
        <route edges="-E5 E1 E2 E11"/>
    </vehicle>
    <vehicle id="146" depart="179.58">
        <route edges="-E9 -E1 E5"/>
    </vehicle>
    <vehicle id="147" depart="180.81">
        <route edges="-E13 -E4 -E1 E0 E7"/>
    </vehicle>
    <vehicle id="148" depart="182.04">
        <route edges="-E8 E3 -E2 E9"/>
    </vehicle>
    <vehicle id="149" depart="183.27">
        <route edges="-E13 -E4 -E1 E0 E7"/>
    </vehicle>
    <vehicle id="150" depart="184.50">
        <route edges="-E0 E1 E2 E10"/>
    </vehicle>
    <vehicle id="151" depart="185.73">
        <route edges="-E9 -E1 E5"/>
    </vehicle>
    <vehicle id="152" depart="186.96">
        <route edges="-E10 -E2 E9"/>
    </vehicle>
    <vehicle id="153" depart="188.19">
        <route edges="-E11 -E3 E7"/>
    </vehicle>
    <vehicle id="154" depart="189.42">
        <route edges="-E10 E11"/>
    </vehicle>
    <vehicle id="155" depart="190.65">
        <route edges="-E9 E2 -E3 -E0 E1 E9"/>
    </vehicle>
    <vehicle id="156" depart="191.88">
        <route edges="-E14 E13"/>
    </vehicle>
    <vehicle id="157" depart="193.11">
        <route edges="-E6 E0 E8"/>
    </vehicle>
    <vehicle id="158" depart="194.34">
        <route edges="-E13 -E4 -E1 E5"/>
    </vehicle>
    <vehicle id="159" depart="195.57">
        <route edges="-E11 -E2 E4 E12"/>
    </vehicle>
    <vehicle id="160" depart="196.80">
        <route edges="-E13 -E4 E9"/>
    </vehicle>
    <vehicle id="161" depart="198.03">
        <route edges="-E10 -E2 E9"/>
    </vehicle>
    <vehicle id="162" depart="199.26">
        <route edges="-E14 -E4 E2 E10"/>
    </vehicle>
    <vehicle id="163" depart="200.49">
        <route edges="E1 E4 E14"/>
    </vehicle>
    <vehicle id="164" depart="201.72">
        <route edges="-E9 E2 -E3 E8"/>
    </vehicle>
    <vehicle id="165" depart="202.95">
        <route edges="-E6 E1 E9"/>
    </vehicle>
    <vehicle id="166" depart="204.18">
        <route edges="-E8 -E0 E1 E4 E14"/>
    </vehicle>
    <vehicle id="167" depart="205.41">
        <route edges="-E11 -E3 -E0 E5"/>
    </vehicle>
    <vehicle id="168" depart="206.64">
        <route edges="-E7 -E0 E6"/>
    </vehicle>
    <vehicle id="169" depart="207.87">
        <route edges="-E11 -E2 E4 E14"/>
    </vehicle>
    <vehicle id="170" depart="209.10">
        <route edges="-E13 -E4 -E1 E6"/>
    </vehicle>
    <vehicle id="171" depart="210.33">
        <route edges="-E9 E4 E14"/>
    </vehicle>
    <vehicle id="172" depart="211.56">
        <route edges="-E11 -E2 -E1 E6"/>
    </vehicle>
    <vehicle id="173" depart="212.79">
        <route edges="-E11 -E3 -E0 E5"/>
    </vehicle>
    <vehicle id="174" depart="214.02">
        <route edges="E3 -E2 -E1 E5"/>
    </vehicle>
    <vehicle id="175" depart="215.25">
        <route edges="-E6 E0 E7"/>
    </vehicle>
    <vehicle id="176" depart="216.48">
        <route edges="-E11 -E3 E8"/>
    </vehicle>
    <vehicle id="177" depart="217.71">
        <route edges="-E13 -E4 E2 E10"/>
    </vehicle>
    <vehicle id="178" depart="218.94">
        <route edges="-E12 -E4 -E1 E6"/>
    </vehicle>
    <vehicle id="179" depart="220.17">
        <route edges="-E14 -E4 -E1 E5"/>
    </vehicle>
    <vehicle id="180" depart="221.40">
        <route edges="-E11 E10"/>
    </vehicle>
    <vehicle id="181" depart="222.63">
        <route edges="-E13 E14"/>
    </vehicle>
    <vehicle id="182" depart="223.86">
        <route edges="-E3 -E0 E1 E4 E12"/>
    </vehicle>
    <vehicle id="183" depart="225.09">
        <route edges="-E12 -E4 E2 -E3 -E0 E1 E4 E12"/>
    </vehicle>
    <vehicle id="184" depart="226.32">
        <route edges="-E11 -E3 E8"/>
    </vehicle>
    <vehicle id="185" depart="227.55">
        <route edges="-E14 -E4 E2 -E3 -E0 E1 E4 E14"/>
    </vehicle>
    <vehicle id="186" depart="228.78">
        <route edges="-E0 E1 E2 E10"/>
    </vehicle>
    <vehicle id="187" depart="230.01">
        <route edges="-E11 E10"/>
    </vehicle>
    <vehicle id="188" depart="231.24">
        <route edges="-E9 E2"/>
    </vehicle>
    <vehicle id="189" depart="232.47">
        <route edges="-E13 -E4 E2 E10"/>
    </vehicle>
    <vehicle id="190" depart="233.70">
        <route edges="-E11 E10"/>
    </vehicle>
    <vehicle id="191" depart="234.93">
        <route edges="-E9 -E1 E0 E7"/>
    </vehicle>
    <vehicle id="192" depart="236.16">
        <route edges="-E13 -E4 -E1 E0 E8"/>
    </vehicle>
    <vehicle id="193" depart="237.39">
        <route edges="-E11 -E3 E8"/>
    </vehicle>
    <vehicle id="194" depart="238.62">
        <route edges="-E13 E12"/>
    </vehicle>
    <vehicle id="195" depart="239.85">
        <route edges="-E9 E2 E11"/>
    </vehicle>
    <vehicle id="196" depart="241.08">
        <route edges="-E13 E14"/>
    </vehicle>
    <vehicle id="197" depart="242.31">
        <route edges="-E14 E13"/>
    </vehicle>
    <vehicle id="198" depart="243.54">
        <route edges="-E5 E0 E7"/>
    </vehicle>
    <vehicle id="199" depart="244.77">
        <route edges="-E10 -E3 -E0 E1 E2 E10"/>
    </vehicle>
    <vehicle id="200" depart="246.00">
        <route edges="-E12 -E4 E9"/>
    </vehicle>
    <vehicle id="201" depart="247.23">
        <route edges="-E11 -E2 E4 E12"/>
    </vehicle>
    <vehicle id="202" depart="248.46">
        <route edges="-E13 E12"/>
    </vehicle>
    <vehicle id="203" depart="249.69">
        <route edges="-E4 -E1 E5"/>
    </vehicle>
    <vehicle id="204" depart="250.92">
        <route edges="-E10 -E2 E9"/>
    </vehicle>
    <vehicle id="205" depart="252.15">
        <route edges="-E5 E1 E9"/>
    </vehicle>
    <vehicle id="206" depart="253.38">
        <route edges="-E8 -E0 E1 E4 E14"/>
    </vehicle>
    <vehicle id="207" depart="254.61">
        <route edges="-E11 -E2 E4 E13"/>
    </vehicle>
    <vehicle id="208" depart="255.84">
        <route edges="-E5 E0 E3 E10"/>
    </vehicle>
    <vehicle id="209" depart="257.07">
        <route edges="-E9 E2 -E3 E8"/>
    </vehicle>
    <vehicle id="210" depart="258.30">
        <route edges="-E10 -E2 E4 E14"/>
    </vehicle>
    <vehicle id="211" depart="259.53">
        <route edges="-E5 E1 E4 E13"/>
    </vehicle>
    <vehicle id="212" depart="260.76">
        <route edges="E2 -E3 -E0 E1 E4 E13"/>
    </vehicle>
    <vehicle id="213" depart="261.99">
        <route edges="-E7 E3 E11"/>
    </vehicle>
    <vehicle id="214" depart="263.22">
        <route edges="-E10 -E3 E8"/>
    </vehicle>
    <vehicle id="215" depart="264.45">
        <route edges="-E5 E0 E8"/>
    </vehicle>
    <vehicle id="216" depart="265.68">
        <route edges="-E10 -E3 E8"/>
    </vehicle>
    <vehicle id="217" depart="266.91">
        <route edges="-E8 E3 E11"/>
    </vehicle>
    <vehicle id="218" depart="268.14">
        <route edges="-E7 -E0 E1 E4 E13"/>
    </vehicle>
    <vehicle id="219" depart="269.37">
        <route edges="-E11 -E2 E4 E14"/>
    </vehicle>
    <vehicle id="220" depart="270.60">
        <route edges="-E11 E10"/>
    </vehicle>
    <vehicle id="221" depart="271.83">
        <route edges="-E10 -E3"/>
    </vehicle>
    <vehicle id="222" depart="273.06">
        <route edges="-E9 E4 E14"/>
    </vehicle>
    <vehicle id="223" depart="274.29">
        <route edges="-E10 -E3 -E0 E1 E2 E10"/>
    </vehicle>
    <vehicle id="224" depart="275.52">
        <route edges="-E14 -E4 E2 E10"/>
    </vehicle>
    <vehicle id="225" depart="276.75">
        <route edges="-E6 E1 E4 E14"/>
    </vehicle>
    <vehicle id="226" depart="277.98">
        <route edges="-E5 E6"/>
    </vehicle>
    <vehicle id="227" depart="279.21">
        <route edges="-E9 E2 -E3 E8"/>
    </vehicle>
    <vehicle id="228" depart="280.44">
        <route edges="-E10 -E3 -E0 E5"/>
    </vehicle>
    <vehicle id="229" depart="281.67">
        <route edges="-E10 -E2 E4 E12"/>
    </vehicle>
    <vehicle id="230" depart="282.90">
        <route edges="-E14 E13"/>
    </vehicle>
    <vehicle id="231" depart="284.13">
        <route edges="-E11 -E3 E8"/>
    </vehicle>
    <vehicle id="232" depart="285.36">
        <route edges="-E13 -E4 E2 -E3 -E0 E1 E4 E13"/>
    </vehicle>
    <vehicle id="233" depart="286.59">
        <route edges="-E7 E3 -E2 E9"/>
    </vehicle>
    <vehicle id="234" depart="287.82">
        <route edges="-E11 -E3 E7"/>
    </vehicle>
    <vehicle id="235" depart="289.05">
        <route edges="-E13 E14"/>
    </vehicle>
    <vehicle id="236" depart="290.28">
        <route edges="-E6 E0 E7"/>
    </vehicle>
    <vehicle id="237" depart="291.51">
        <route edges="-E9 E2 E11"/>
    </vehicle>
    <vehicle id="238" depart="292.74">
        <route edges="-E7 -E0 E1 E4 E12"/>
    </vehicle>
    <vehicle id="239" depart="293.97">
        <route edges="-E12 E14"/>
    </vehicle>
    <vehicle id="240" depart="295.20">
        <route edges="-E11 -E2 E9"/>
    </vehicle>
    <vehicle id="241" depart="296.43">
        <route edges="-E5 E1 E4 E13"/>
    </vehicle>
    <vehicle id="242" depart="297.66">
        <route edges="-E10 -E2 E4 E13"/>
    </vehicle>
    <vehicle id="243" depart="298.89">
        <route edges="-E5 E6"/>
    </vehicle>
    <vehicle id="244" depart="300.12">
        <route edges="-E7 -E0 E1 E4 E13"/>
    </vehicle>
    <vehicle id="245" depart="301.35">
        <route edges="-E8 -E0 E1 E4 E14"/>
    </vehicle>
    <vehicle id="246" depart="302.58">
        <route edges="-E11 E10"/>
    </vehicle>
    <vehicle id="247" depart="303.81">
        <route edges="-E8 -E0 E5"/>
    </vehicle>
    <vehicle id="248" depart="305.04">
        <route edges="-E7 E3 E11"/>
    </vehicle>
    <vehicle id="249" depart="306.27">
        <route edges="-E5 E1 E9"/>
    </vehicle>
    <vehicle id="250" depart="307.50">
        <route edges="-E8 -E0 E1 E4 E13"/>
    </vehicle>
    <vehicle id="251" depart="308.73">
        <route edges="-E8 -E0 E1 E2 -E3 E8"/>
    </vehicle>
    <vehicle id="252" depart="309.96">
        <route edges="-E11 -E3 E7"/>
    </vehicle>
    <vehicle id="253" depart="311.19">
        <route edges="-E14 -E4 -E1 E5"/>
    </vehicle>
    <vehicle id="254" depart="312.42">
        <route edges="-E10 -E3 E8"/>
    </vehicle>
    <vehicle id="255" depart="313.65">
        <route edges="-E10 -E3 -E0 E1 E2 E10"/>
    </vehicle>
    <vehicle id="256" depart="314.88">
        <route edges="E1 E2 -E3 E8"/>
    </vehicle>
    <vehicle id="257" depart="316.11">
        <route edges="-E12 -E4 -E1 E6"/>
    </vehicle>
    <vehicle id="258" depart="317.34">
        <route edges="-E14 E12"/>
    </vehicle>
    <vehicle id="259" depart="318.57">
        <route edges="-E5 E0 E8"/>
    </vehicle>
    <vehicle id="260" depart="319.80">
        <route edges="-E13 -E4 -E1 E0 E8"/>
    </vehicle>
    <vehicle id="261" depart="321.03">
        <route edges="-E5 E1 E4 E14"/>
    </vehicle>
    <vehicle id="262" depart="322.26">
        <route edges="-E3 -E0 E1 E2 E10"/>
    </vehicle>
    <vehicle id="263" depart="323.49">
        <route edges="-E7 E3 -E2 E9"/>
    </vehicle>
    <vehicle id="264" depart="324.72">
        <route edges="-E11 -E2 E4 E13"/>
    </vehicle>
    <vehicle id="265" depart="325.95">
        <route edges="-E7 -E0 E1 E4 E14"/>
    </vehicle>
    <vehicle id="266" depart="327.18">
        <route edges="-E10 -E3 E8"/>
    </vehicle>
    <vehicle id="267" depart="328.41">
        <route edges="-E7 E3 -E2 E9"/>
    </vehicle>
    <vehicle id="268" depart="329.64">
        <route edges="-E8 E7"/>
    </vehicle>
    <vehicle id="269" depart="330.87">
        <route edges="-E4 E2 E11"/>
    </vehicle>
    <vehicle id="270" depart="332.10">
        <route edges="-E5 E1 E2 -E3 -E0 E5"/>
    </vehicle>
    <vehicle id="271" depart="333.33">
        <route edges="E0 E3 E11"/>
    </vehicle>
    <vehicle id="272" depart="334.56">
        <route edges="-E9 E4 E12"/>
    </vehicle>
    <vehicle id="273" depart="335.79">
        <route edges="-E8 E3 -E2 E9"/>
    </vehicle>
    <vehicle id="274" depart="337.02">
        <route edges="-E11 -E3 E8"/>
    </vehicle>
    <vehicle id="275" depart="338.25">
        <route edges="-E14 E13"/>
    </vehicle>
    <vehicle id="276" depart="339.48">
        <route edges="-E12 -E4 -E1 E5"/>
    </vehicle>
    <vehicle id="277" depart="340.71">
        <route edges="-E9 E2 E10"/>
    </vehicle>
    <vehicle id="278" depart="341.94">
        <route edges="-E5 E1 E9"/>
    </vehicle>
    <vehicle id="279" depart="343.17">
        <route edges="-E7 -E0 E1 E4 E13"/>
    </vehicle>
    <vehicle id="280" depart="344.40">
        <route edges="-E6 E1 E9"/>
    </vehicle>
    <vehicle id="281" depart="345.63">
        <route edges="-E13 -E4 E2 -E3 -E0 E1 E4 E13"/>
    </vehicle>
    <vehicle id="282" depart="346.86">
        <route edges="-E0 E1 E2"/>
    </vehicle>
    <vehicle id="283" depart="348.09">
        <route edges="-E10 -E3 -E0 E5"/>
    </vehicle>
    <vehicle id="284" depart="349.32">
        <route edges="-E12 -E4 -E1 E5"/>
    </vehicle>
    <vehicle id="285" depart="350.55">
        <route edges="-E7 E3 E10"/>
    </vehicle>
    <vehicle id="286" depart="351.78">
        <route edges="-E12 -E4 E2 -E3 E8"/>
    </vehicle>
    <vehicle id="287" depart="353.01">
        <route edges="-E14 E13"/>
    </vehicle>
    <vehicle id="288" depart="354.24">
        <route edges="-E8 E3 -E2 E9"/>
    </vehicle>
    <vehicle id="289" depart="355.47">
        <route edges="-E11 -E2 E4 E14"/>
    </vehicle>
    <vehicle id="290" depart="356.70">
        <route edges="-E14 -E4 -E1 E0 E7"/>
    </vehicle>
    <vehicle id="291" depart="357.93">
        <route edges="-E6 E1 E9"/>
    </vehicle>
    <vehicle id="292" depart="359.16">
        <route edges="-E6 E0 E3 E10"/>
    </vehicle>
    <vehicle id="293" depart="360.39">
        <route edges="-E12 -E4 -E1 E6"/>
    </vehicle>
    <vehicle id="294" depart="361.62">
        <route edges="-E1 E0 E3 -E2 E4 E13"/>
    </vehicle>
    <vehicle id="295" depart="362.85">
        <route edges="-E9 E2 E10"/>
    </vehicle>
    <vehicle id="296" depart="364.08">
        <route edges="-E12 -E4 E2 E11"/>
    </vehicle>
    <vehicle id="297" depart="365.31">
        <route edges="-E12 -E4 -E1 E6"/>
    </vehicle>
    <vehicle id="298" depart="366.54">
        <route edges="-E6 E0 E3 E10"/>
    </vehicle>
    <vehicle id="299" depart="367.77">
        <route edges="-E13 -E4 E2 -E3 -E0 E1 E4 E13"/>
    </vehicle>
    <vehicle id="300" depart="369.00">
        <route edges="-E4 -E1 E5"/>
    </vehicle>
    <vehicle id="301" depart="370.23">
        <route edges="-E5 E0 E3 E10"/>
    </vehicle>
    <vehicle id="302" depart="371.46">
        <route edges="-E9 -E1 E6"/>
    </vehicle>
    <vehicle id="303" depart="372.69">
        <route edges="-E6 E0 E7"/>
    </vehicle>
    <vehicle id="304" depart="373.92">
        <route edges="-E12 -E4 E2 E11"/>
    </vehicle>
    <vehicle id="305" depart="375.15">
        <route edges="-E14 -E4 -E1 E5"/>
    </vehicle>
    <vehicle id="306" depart="376.38">
        <route edges="-E13 -E4 E2 -E3 -E0"/>
    </vehicle>
    <vehicle id="307" depart="377.61">
        <route edges="-E14 -E4 E9"/>
    </vehicle>
    <vehicle id="308" depart="378.84">
        <route edges="-E13 E12"/>
    </vehicle>