<?xml version="1.0" encoding="UTF-8"?>

<!-- generated on 2026-04-21 12:28:20.041325 by Eclipse SUMO randomTrips.py v1.26.0.post1158
<configuration>
    <net-file value="/home/ekene/Projects/trafix/sumo/map.net.xml"/>
    <output-trip-file value="/home/ekene/Projects/trafix/sumo/training_demand.rou.xml"/>
    <fringe-factor value="10"/>
    <seed value="74365"/>
    <period value="1.04"/>
</configuration>
-->

<!-- generated on 2026-04-21T12:28:19.964685+03:00 by Eclipse SUMO duarouter v1_26_0+1158-9885fdbdedb
<duarouterConfiguration xmlns:xsi="http://www.w3.org/2001/XMLSchema-instance" xsi:noNamespaceSchemaLocation="http://sumo.dlr.de/xsd/duarouterConfiguration.xsd">

    <input>
        <net-file value="/home/ekene/Projects/trafix/sumo/map.net.xml"/>
        <route-files value="/home/ekene/Projects/trafix/sumo/training_demand.rou.xml"/>
    </input>

    <output>
        <output-file value="routes.rou.xml"/>
        <alternatives-output value="NUL"/>
    </output>

    <time>
        <begin value="0"/>
        <end value="3600.0"/>
    </time>

    <report>
        <no-warnings value="true"/>
        <ignore-errors value="true"/>
        <no-step-log value="true"/>
    </report>

</duarouterConfiguration>
-->

<routes xmlns:xsi="http://www.w3.org/2001/XMLSchema-instance" xsi:noNamespaceSchemaLocation="http://sumo.dlr.de/xsd/routes_file.xsd">
    <vehicle id="0" depart="0.00">
        <route edges="-E1 E0 E3 -E2 E9"/>
    </vehicle>
    <vehicle id="1" depart="1.04">
        <route edges="-E9 E2 -E3 E8"/>
    </vehicle>
    <vehicle id="2" depart="2.08">
        <route edges="-E7 E3 -E2 E9"/>
    </vehicle>
    <vehicle id="3" depart="3.12">
        <route edges="-E13 -E4 E2 E11"/>
    </vehicle>
    <vehicle id="4" depart="4.16">
        <route edges="-E7 -E0 E1 E4"/>
    </vehicle>
    <vehicle id="5" depart="5.20">
        <route edges="-E11 -E2 E9"/>
    </vehicle>
    <vehicle id="6" depart="6.24">
        <route edges="-E4 E2 -E3 E8"/>
    </vehicle>
    <vehicle id="7" depart="7.28">
        <route edges="-E9 E4 E12"/>
    </vehicle>
    <vehicle id="8" depart="8.32">
        <route edges="-E13 -E4 -E1 E0 E7"/>
    </vehicle>
    <vehicle id="9" depart="9.36">
        <route edges="-E12 -E4 -E1 E0 E7"/>
    </vehicle>
    <vehicle id="10" depart="10.40">
        <route edges="E3 -E2 -E1"/>
    </vehicle>
    <vehicle id="11" depart="11.44">
        <route edges="-E8 -E0 E1 E4 E13"/>
    </vehicle>
    <vehicle id="12" depart="12.48">
        <route edges="-E12 -E4 -E1 E0 E3 -E2"/>
    </vehicle>
    <vehicle id="13" depart="13.52">
        <route edges="-E7 E8"/>
    </vehicle>
    <vehicle id="14" depart="14.56">
        <route edges="-E7 -E0 E6"/>
    </vehicle>
    <vehicle id="15" depart="15.60">
        <route edges="-E6 E1 E4 E13"/>
    </vehicle>
    <vehicle id="16" depart="16.64">
        <route edges="-E12 -E4 E2 -E3 -E0 E1 E4 E12"/>
    </vehicle>
    <vehicle id="17" depart="17.68">
        <route edges="-E8 -E0 E6"/>
    </vehicle>
    <vehicle id="18" depart="18.72">
        <route edges="-E11 -E3 E7"/>
    </vehicle>
    <vehicle id="19" depart="19.76">
        <route edges="E3 -E2 E4 E14"/>
    </vehicle>
    <vehicle id="20" depart="20.80">
        <route edges="-E7 E8"/>
    </vehicle>
    <vehicle id="21" depart="21.84">
        <route edges="-E6 E0 E7"/>
    </vehicle>
    <vehicle id="22" depart="22.88">
        <route edges="E3 E11"/>
    </vehicle>
    <vehicle id="23" depart="23.92">
        <route edges="-E8 E7"/>
    </vehicle>
    <vehicle id="24" depart="24.96">
        <route edges="-E13 E12"/>
    </vehicle>
    <vehicle id="25" depart="26.00">
        <route edges="-E9 E4 E12"/>
    </vehicle>
    <vehicle id="26" depart="27.04">
        <route edges="-E6 E1 E4 E13"/>
    </vehicle>
    <vehicle id="27" depart="28.08">
        <route edges="-E9 E4 E12"/>
    </vehicle>
    <vehicle id="28" depart="29.12">
        <route edges="-E7 -E0 E1 E4 E14"/>
    </vehicle>
    <vehicle id="29" depart="30.16">
        <route edges="-E5 E1 E2 E11"/>
    </vehicle>
    <vehicle id="30" depart="31.20">
        <route edges="-E13 -E4 E2 E10"/>
    </vehicle>
    <vehicle id="31" depart="32.24">
        <route edges="-E11 -E3 E7"/>
    </vehicle>
    <vehicle id="32" depart="33.28">
        <route edges="-E14 -E4 -E1 E0 E7"/>
    </vehicle>
    <vehicle id="33" depart="34.32">
        <route edges="-E12 -E4 E2 E11"/>
    </vehicle>
    <vehicle id="34" depart="35.36">
        <route edges="-E14 -E4 E2 -E3 E8"/>
    </vehicle>
    <vehicle id="35" depart="36.40">
        <route edges="-E7 -E0 E1 E4"/>
    </vehicle>
    <vehicle id="36" depart="37.44">
        <route edges="-E6 E1 E2 E11"/>
    </vehicle>
    <vehicle id="37" depart="38.48">
        <route edges="-E9 -E1 E0 E7"/>
    </vehicle>
    <vehicle id="38" depart="39.52">
        <route edges="-E8 -E0 E1 E2 -E3 E8"/>
    </vehicle>
    <vehicle id="39" depart="40.56">
        <route edges="-E11 -E2 E4 E12"/>
    </vehicle>
    <vehicle id="40" depart="41.60">
        <route edges="-E12 -E4 -E1 E0 E7"/>
    </vehicle>
    <vehicle id="41" depart="42.64">
        <route edges="-E9 E2 E11"/>
    </vehicle>
    <vehicle id="42" depart="43.68">
        <route edges="-E3 -E0 E6"/>
    </vehicle>
    <vehicle id="43" depart="44.72">
        <route edges="-E5 E0 E7"/>
    </vehicle>
    <vehicle id="44" depart="45.76">
        <route edges="-E12 -E4 E2 E10"/>
    </vehicle>
    <vehicle id="45" depart="46.80">
        <route edges="-E9 E4 E12"/>
    </vehicle>
    <vehicle id="46" depart="47.84">
        <route edges="-E14 -E4 -E1 E0 E3"/>
    </vehicle>
    <vehicle id="47" depart="48.88">
        <route edges="-E14 -E4 E2 -E3 -E0 E1 E4 E14"/>
    </vehicle>
    <vehicle id="48" depart="49.92">
        <route edges="-E8 -E0 E1 E2 -E3 E8"/>
    </vehicle>
    <vehicle id="49" depart="50.96">
        <route edges="-E14 -E4 E2 -E3 E8"/>
    </vehicle>
    <vehicle id="50" depart="52.00">
        <route edges="-E9 E4 E13"/>
    </vehicle>
    <vehicle id="51" depart="53.04">
        <route edges="-E13 -E4 -E1 E0 E7"/>
    </vehicle>
    <vehicle id="52" depart="54.08">
        <route edges="-E12 -E4 -E1 E6"/>
    </vehicle>
    <vehicle id="53" depart="55.12">
        <route edges="-E12 E13"/>
    </vehicle>
    <vehicle id="54" depart="56.16">
        <route edges="-E8 -E0 E5"/>
    </vehicle>
    <vehicle id="55" depart="57.20">
        <route edges="-E9 E2 E11"/>
    </vehicle>
    <vehicle id="56" depart="58.24">
        <route edges="-E12 -E4 E2 -E3 E8"/>
    </vehicle>
    <vehicle id="57" depart="59.28">
        <route edges="-E10 -E2 E4 E14"/>
    </vehicle>
    <vehicle id="58" depart="60.32">
        <route edges="-E14 -E4 -E1 E0 E7"/>
    </vehicle>
    <vehicle id="59" depart="61.36">
        <route edges="-E9 E2"/>
    </vehicle>
    <vehicle id="60" depart="62.40">
        <route edges="-E9 -E1 E5"/>
    </vehicle>
    <vehicle id="61" depart="63.44">
        <route edges="-E0 E1 E2 -E3 E8"/>
    </vehicle>
    <vehicle id="62" depart="64.48">
        <route edges="-E13 -E4 E2 E11"/>
    </vehicle>
    <vehicle id="63" depart="65.52">
        <route edges="-E7 E3 -E2"/>
    </vehicle>
    <vehicle id="64" depart="66.56">
        <route edges="-E11 -E3 -E0 E1 E2 E11"/>
    </vehicle>
    <vehicle id="65" depart="67.60">
        <route edges="-E10 -E3 -E0 E5"/>
    </vehicle>
    <vehicle id="66" depart="68.64">
        <route edges="-E5 E1 E9"/>
    </vehicle>
    <vehicle id="67" depart="69.68">
        <route edges="-E10 -E3 -E0 E1 E2 E10"/>
    </vehicle>
    <vehicle id="68" depart="70.72">
        <route edges="-E10 E11"/>
    </vehicle>
    <vehicle id="69" depart="71.76">
        <route edges="-E14 E13"/>
    </vehicle>
    <vehicle id="70" depart="72.80">
        <route edges="-E11 E10"/>
    </vehicle>
    <vehicle id="71" depart="73.84">
        <route edges="-E10 -E2 -E1 E6"/>
    </vehicle>
    <vehicle id="72" depart="74.88">
        <route edges="-E6 E0 E8"/>
    </vehicle>
    <vehicle id="73" depart="75.92">
        <route edges="-E14 E12"/>
    </vehicle>
    <vehicle id="74" depart="76.96">
        <route edges="-E13 -E4 -E1 E6"/>
    </vehicle>
    <vehicle id="75" depart="78.00">
        <route edges="-E5 E0 E8"/>
    </vehicle>
    <vehicle id="76" depart="79.04">
        <route edges="-E0 E1 E2 -E3 E8"/>
    </vehicle>
    <vehicle id="77" depart="80.08">
        <route edges="-E12 -E4 -E1 E0 E7"/>
    </vehicle>
    <vehicle id="78" depart="81.12">
        <route edges="-E9 E2 E10"/>
    </vehicle>
    <vehicle id="79" depart="82.16">
        <route edges="-E10 -E3 -E0 E1 E2 E10"/>
    </vehicle>
    <vehicle id="80" depart="83.20">
        <route edges="-E9 -E1 E6"/>
    </vehicle>
    <vehicle id="81" depart="84.24">
        <route edges="-E10 -E2 E4 E13"/>
    </vehicle>
    <vehicle id="82" depart="85.28">
        <route edges="-E7 E3 -E2 E9"/>
    </vehicle>
    <vehicle id="83" depart="86.32">
        <route edges="-E8 -E0 E1 E2 -E3"/>
    </vehicle>
    <vehicle id="84" depart="87.36">
        <route edges="-E8 -E0 E1 E2 -E3 E8"/>
    </vehicle>
    <vehicle id="85" depart="88.40">
        <route edges="-E6 E1 E2 E11"/>
    </vehicle>
    <vehicle id="86" depart="89.44">
        <route edges="-E10 -E3 -E0 E5"/>
    </vehicle>
    <vehicle id="87" depart="90.48">
        <route edges="-E2 E4 E12"/>
    </vehicle>
    <vehicle id="88" depart="91.52">
        <route edges="-E9 -E1 E0 E7"/>
    </vehicle>
    <vehicle id="89" depart="92.56">
        <route edges="-E11 -E2 E4 E12"/>
    </vehicle>
    <vehicle id="90" depart="93.60">
        <route edges="-E7 -E0 E6"/>
    </vehicle>
    <vehicle id="91" depart="94.64">
        <route edges="-E10 E11"/>
    </vehicle>
    <vehicle id="92" depart="95.68">
        <route edges="-E14 -E4 E2 -E3 -E0 E1 E4 E14"/>
    </vehicle>
    <vehicle id="93" depart="96.72">
        <route edges="-E9 -E1 E0 E7"/>
    </vehicle>
    <vehicle id="94" depart="97.76">
        <route edges="-E6 E0 E8"/>
    </vehicle>
    <vehicle id="95" depart="98.80">
        <route edges="-E7 E3 E10"/>
    </vehicle>
    <vehicle id="96" depart="99.84">
        <route edges="-E6 E0 E8"/>
    </vehicle>
    <vehicle id="97" depart="100.88">
        <route edges="-E2 -E1 E6"/>
    </vehicle>
    <vehicle id="98" depart="101.92">
        <route edges="-E6 E1 E4 E13"/>
    </vehicle>
    <vehicle id="99" depart="102.96">
        <route edges="-E8 E7"/>
    </vehicle>
    <vehicle id="100" depart="104.00">
        <route edges="-E12 -E4 E2 -E3 E8"/>
    </vehicle>
    <vehicle id="101" depart="105.04">
        <route edges="-E7 -E0 E1 E4 E12"/>
    </vehicle>
    <vehicle id="102" depart="106.08">
        <route edges="-E12 -E4 -E1 E6"/>
    </vehicle>
    <vehicle id="103" depart="107.12">
        <route edges="-E9 -E1 E0 E7"/>
    </vehicle>
    <vehicle id="104" depart="108.16">
        <route edges="-E12 E14"/>
    </vehicle>
    <vehicle id="105" depart="109.20">
        <route edges="-E12 E14"/>
    </vehicle>
    <vehicle id="106" depart="110.24">
        <route edges="-E13 -E4 E2"/>
    </vehicle>
    <vehicle id="107" depart="111.28">
        <route edges="-E10 -E2 E4 E14"/>
    </vehicle>
    <vehicle id="108" depart="112.32">
        <route edges="-E13 -E4 E9"/>
    </vehicle>
    <vehicle id="109" depart="113.36">
        <route edges="-E12 -E4 E2 -E3 E8"/>
    </vehicle>
    <vehicle id="110" depart="114.40">
        <route edges="-E10 -E3 -E0 E5"/>
    </vehicle>
    <vehicle id="111" depart="115.44">
        <route edges="-E5 E1 E9"/>
    </vehicle>
    <vehicle id="112" depart="116.48">
        <route edges="-E12 -E4 -E1 E0 E7"/>
    </vehicle>
    <vehicle id="113" depart="117.52">
        <route edges="-E13 -E4 -E1 E5"/>
    </vehicle>
    <vehicle id="114" depart="118.56">
        <route edges="-E13 -E4 E2 E11"/>
    </vehicle>
    <vehicle id="115" depart="119.60">
        <route edges="-E12 -E4 -E1 E0 E7"/>
    </vehicle>
    <vehicle id="116" depart="120.64">
        <route edges="-E12 -E4 E9"/>
    </vehicle>
    <vehicle id="117" depart="121.68">
        <route edges="-E3 E8"/>
    </vehicle>
    <vehicle id="118" depart="122.72">
        <route edges="-E11 -E2 E4 E13"/>
    </vehicle>
    <vehicle id="119" depart="123.76">
        <route edges="-E14 E12"/>
    </vehicle>
    <vehicle id="120" depart="124.80">
        <route edges="-E8 -E0 E1 E4 E14"/>
    </vehicle>
    <vehicle id="121" depart="125.84">
        <route edges="E3 -E2 -E1 E0 E7"/>
    </vehicle>
    <vehicle id="122" depart="126.88">
        <route edges="-E0 E1 E4 E14"/>
    </vehicle>
    <vehicle id="123" depart="127.92">
        <route edges="-E8 -E0 E1 E4 E14"/>
    </vehicle>
    <vehicle id="124" depart="128.96">
        <route edges="-E12 -E4 E2 -E3"/>
    </vehicle>
    <vehicle id="125" depart="130.00">
        <route edges="-E12 -E4 E2 -E3 E8"/>
    </vehicle>
    <vehicle id="126" depart="131.04">
        <route edges="-E8 -E0 E1 E2 -E3 E8"/>
    </vehicle>
    <vehicle id="127" depart="132.08">
        <route edges="-E6 E0 E7"/>
    </vehicle>
    <vehicle id="128" depart="133.12">
        <route edges="-E14 E12"/>
    </vehicle>
    <vehicle id="129" depart="134.16">
        <route edges="-E12 -E4 E2 -E3 -E0 E1 E4 E12"/>
    </vehicle>
    <vehicle id="130" depart="135.20">
        <route edges="-E6 E1 E4 E12"/>
    </vehicle>
    <vehicle id="131" depart="136.24">
        <route edges="-E11 E10"/>
    </vehicle>
    <vehicle id="132" depart="137.28">
        <route edges="-E12 -E4 -E1 E0 E7"/>
    </vehicle>
    <vehicle id="133" depart="138.32">
        <route edges="-E6 E5"/>
    </vehicle>
    <vehicle id="134" depart="139.36">
        <route edges="-E8 E7"/>
    </vehicle>
    <vehicle id="135" depart="140.40">
        <route edges="-E2 -E1 E0 E3 E11"/>
    </vehicle>
    <vehicle id="136" depart="141.44">
        <route edges="-E10 -E3 -E0 E1 E2 E10"/>
    </vehicle>
    <vehicle id="137" depart="142.48">
        <route edges="-E12 E14"/>
    </vehicle>
    <vehicle id="138" depart="143.52">
        <route edges="-E12 -E4 -E1 E5"/>
    </vehicle>
    <vehicle id="139" depart="144.56">
        <route edges="-E7 -E0 E1 E4 E12"/>
    </vehicle>
    <vehicle id="140" depart="145.60">
        <route edges="-E13 -E4 -E1 E6"/>
    </vehicle>
    <vehicle id="141" depart="146.64">
        <route edges="-E11 -E3"/>
    </vehicle>
    <vehicle id="142" depart="147.68">
        <route edges="-E9 E2 -E3 -E0"/>
    </vehicle>
    <vehicle id="143" depart="148.72">
        <route edges="-E4 -E1 E0 E7"/>
    </vehicle>
    <vehicle id="144" depart="149.76">
        <route edges="-E12 -E4 -E1 E0 E7"/>
    </vehicle>
    <vehicle id="145" depart="150.80">
        <route edges="-E3 E8"/>
    </vehicle>
    <vehicle id="146" depart="151.84">
        <route edges="-E7 -E0 E1 E4 E13"/>
    </vehicle>
    <vehicle id="147" depart="152.88">
        <route edges="-E8 E3 -E2 E9"/>
    </vehicle>
    <vehicle id="148" depart="153.92">
        <route edges="-E11 -E2 E4 E12"/>
    </vehicle>
    <vehicle id="149" depart="154.96">
        <route edges="-E6 E0 E7"/>
    </vehicle>
    <vehicle id="150" depart="156.00">
        <route edges="-E14 -E4 -E1 E0 E7"/>
    </vehicle>
    <vehicle id="151" depart="157.04">
        <route edges="-E5 E1 E9"/>
    </vehicle>
    <vehicle id="152" depart="158.08">
        <route edges="E2 -E3 -E0 E1 E4 E14"/>
    </vehicle>
    <vehicle id="153" depart="159.12">
        <route edges="E0 E3 -E2 -E1 E6"/>
    </vehicle>
    <vehicle id="154" depart="160.16">
        <route edges="-E5 E1 E4 E13"/>
    </vehicle>
    <vehicle id="155" depart="161.20">
        <route edges="-E12 E13"/>
    </vehicle>
    <vehicle id="156" depart="162.24">
        <route edges="-E14 -E4 E9"/>
    </vehicle>
    <vehicle id="157" depart="163.28">
        <route edges="-E5 E6"/>
    </vehicle>
    <vehicle id="158" depart="164.32">
        <route edges="-E13 -E4 E2 E11"/>
    </vehicle>
    <vehicle id="159" depart="165.36">
        <route edges="-E9 -E1 E6"/>
    </vehicle>
    <vehicle id="160" depart="166.40">
        <route edges="-E11 -E2 E4 E13"/>
    </vehicle>
    <vehicle id="161" depart="167.44">
        <route edges="-E5 E0 E7"/>
    </vehicle>
    <vehicle id="162" depart="168.48">
        <route edges="-E13 E14"/>
    </vehicle>
    <vehicle id="163" depart="169.52">
        <route edges="-E12 -E4 E2 E10"/>
    </vehicle>
    <vehicle id="164" depart="170.56">
        <route edges="E2 E11"/>
    </vehicle>
    <vehicle id="165" depart="171.60">
        <route edges="-E14 -E4 E2 E11"/>
    </vehicle>
    <vehicle id="166" depart="172.64">
        <route edges="-E4 E2 E11"/>
    </vehicle>
    <vehicle id="167" depart="173.68">
        <route edges="-E5 E1 E2 E11"/>
    </vehicle>
    <vehicle id="168" depart="174.72">
        <route edges="-E12 -E4 E9"/>
    </vehicle>
    <vehicle id="169" depart="175.76">
        <route edges="-E13 -E4 -E1 E6"/>
    </vehicle>
    <vehicle id="170" depart="176.80">
        <route edges="-E9 -E1 E0 E7"/>
    </vehicle>
    <vehicle id="171" depart="177.84">
        <route edges="-E11 -E2"/>
    </vehicle>
    <vehicle id="172" depart="178.88">
        <route edges="-E7 E3 E11"/>
    </vehicle>
    <vehicle id="173" depart="179.92">
        <route edges="-E8 -E0 E1 E4 E14"/>
    </vehicle>
    <vehicle id="174" depart="180.96">
        <route edges="-E10 E11"/>
    </vehicle>
    <vehicle id="175" depart="182.00">
        <route edges="E3 E10"/>
    </vehicle>
    <vehicle id="176" depart="183.04">
        <route edges="-E12 E14"/>
    </vehicle>
    <vehicle id="177" depart="184.08">
        <route edges="-E13 -E4 -E1 E0 E7"/>
    </vehicle>
    <vehicle id="178" depart="185.12">
        <route edges="-E6 E0 E8"/>
    </vehicle>
    <vehicle id="179" depart="186.16">
        <route edges="-E5 E0 E8"/>
    </vehicle>
    <vehicle id="180" depart="187.20">
        <route edges="-E8 -E0 E1 E4 E12"/>
    </vehicle>
    <vehicle id="181" depart="188.24">
        <route edges="-E9 -E1 E5"/>
    </vehicle>
    <vehicle id="182" depart="189.28">
        <route edges="-E1 E0 E3 -E2 E4 E12"/>
    </vehicle>
    <vehicle id="183" depart="190.32">
        <route edges="-E11 -E3 -E0 E1 E2 E11"/>
    </vehicle>
    <vehicle id="184" depart="191.36">
        <route edges="-E6 E1 E4 E13"/>
    </vehicle>
    <vehicle id="185" depart="192.40">
        <route edges="-E6 E1 E2 E11"/>
    </vehicle>
    <vehicle id="186" depart="193.44">
        <route edges="-E9 -E1 E0 E7"/>
    </vehicle>
    <vehicle id="187" depart="194.48">
        <route edges="-E12 -E4 E2 -E3 -E0 E1 E4 E12"/>
    </vehicle>
    <vehicle id="188" depart="195.52">
        <route edges="-E7 -E0 E1 E2 -E3 E7"/>
    </vehicle>
    <vehicle id="189" depart="196.56">
        <route edges="-E5 E1 E9"/>
    </vehicle>
    <vehicle id="190" depart="197.60">
        <route edges="-E9 E4 E13"/>
    </vehicle>
    <vehicle id="191" depart="198.64">
        <route edges="-E7 -E0 E1 E4 E14"/>
    </vehicle>
    <vehicle id="192" depart="199.68">
        <route edges="E3 -E2 E4 E14"/>
    </vehicle>
    <vehicle id="193" depart="200.72">
        <route edges="-E5 E1 E4 E14"/>
    </vehicle>
    <vehicle id="194" depart="201.76">
        <route edges="-E11 -E2 E4 E14"/>
    </vehicle>
    <vehicle id="195" depart="202.80">
        <route edges="-E5 E0 E3 E10"/>
    </vehicle>
    <vehicle id="196" depart="203.84">
        <route edges="-E13 -E4 E2 -E3 -E0 E1 E4 E13"/>
    </vehicle>
    <vehicle id="197" depart="204.88">
        <route edges="-E14 -E4 E2 E10"/>
    </vehicle>
    <vehicle id="198" depart="205.92">
        <route edges="-E14 -E4 E2 -E3 -E0"/>
    </vehicle>
    <vehicle id="199" depart="206.96">
        <route edges="-E9 E2 E10"/>
    </vehicle>
    <vehicle id="200" depart="208.00">
        <route edges="-E7 E8"/>
    </vehicle>
    <vehicle id="201" depart="209.04">
        <route edges="-E12 -E4 E2 E10"/>
    </vehicle>
    <vehicle id="202" depart="210.08">
        <route edges="-E13 E14"/>
    </vehicle>
    <vehicle id="203" depart="211.12">
        <route edges="-E8 -E0 E1 E2 -E3 E8"/>
    </vehicle>
    <vehicle id="204" depart="212.16">
        <route edges="-E7 -E0 E1 E4 E12"/>
    </vehicle>
    <vehicle id="205" depart="213.20">
        <route edges="-E14 -E4 E2"/>
    </vehicle>
    <vehicle id="206" depart="214.24">
        <route edges="-E10 -E2 -E1 E6"/>
    </vehicle>
    <vehicle id="207" depart="215.28">
        <route edges="-E10 -E2 E4 E12"/>
    </vehicle>
    <vehicle id="208" depart="216.32">
        <route edges="-E14 -E4 -E1 E0 E7"/>
    </vehicle>
    <vehicle id="209" depart="217.36">
        <route edges="-E14 -E4 E2 -E3 -E0 E1 E4 E14"/>
    </vehicle>
    <vehicle id="210" depart="218.40">
        <route edges="-E0 E1 E4 E12"/>
    </vehicle>
    <vehicle id="211" depart="219.44">
        <route edges="-E6 E0 E3 E10"/>
    </vehicle>
    <vehicle id="212" depart="220.48">
        <route edges="-E6 E1 E4 E12"/>
    </vehicle>
    <vehicle id="213" depart="221.52">
        <route edges="E3 -E2 E4 E14"/>
    </vehicle>
    <vehicle id="214" depart="222.56">
        <route edges="-E12 -E4 -E1 E0"/>
    </vehicle>
    <vehicle id="215" depart="223.60">
        <route edges="-E12 -E4 E2 -E3 -E0 E1 E4 E12"/>
    </vehicle>
    <vehicle id="216" depart="224.64">
        <route edges="-E8 E3"/>
    </vehicle>
    <vehicle id="217" depart="225.68">
        <route edges="-E7 E3 E11"/>
    </vehicle>
    <vehicle id="218" depart="226.72">
        <route edges="-E6 E1 E2 E11"/>
    </vehicle>
    <vehicle id="219" depart="227.76">
        <route edges="-E8 E7"/>
    </vehicle>
    <vehicle id="220" depart="228.80">
        <route edges="-E12 -E4 E2 E10"/>
    </vehicle>
    <vehicle id="221" depart="229.84">
        <route edges="-E8 -E0 E1 E4 E13"/>
    </vehicle>
    <vehicle id="222" depart="230.88">
        <route edges="-E11 -E2 E4 E12"/>
    </vehicle>
    <vehicle id="223" depart="231.92">
        <route edges="-E14 -E4 -E1 E0 E7"/>
    </vehicle>
    <vehicle id="224" depart="232.96">
        <route edges="-E7 -E0 E1 E4 E13"/>
    </vehicle>
    <vehicle id="225" depart="234.00">
        <route edges="-E9 E2 -E3 -E0 E1 E9"/>
    </vehicle>
    <vehicle id="226" depart="235.04">
        <route edges="-E6 E0 E7"/>
    </vehicle>
    <vehicle id="227" depart="236.08">
        <route edges="-E14 -E4 -E1 E6"/>
    </vehicle>
    <vehicle id="228" depart="237.12">
        <route edges="-E6 E1 E4 E13"/>
    </vehicle>
    <vehicle id="229" depart="238.16">
        <route edges="-E12 -E4 E2 -E3 -E0 E1 E4 E12"/>
    </vehicle>
    <vehicle id="230" depart="239.20">
        <route edges="-E5 E1 E4 E14"/>
    </vehicle>
    <vehicle id="231" depart="240.24">
        <route edges="-E6 E5"/>
    </vehicle>
    <vehicle id="232" depart="241.28">
        <route edges="-E11 -E3 E7"/>
    </vehicle>
    <vehicle id="233" depart="242.32">
        <route edges="-E13 -E4 E2 -E3"/>
    </vehicle>
    <vehicle id="234" depart="243.36">
        <route edges="-E14 -E4 -E1 E6"/>
    </vehicle>
    <vehicle id="235" depart="244.40">
        <route edges="-E5 E0 E3 E10"/>
    </vehicle>
    <vehicle id="236" depart="245.44">
        <route edges="-E13 E14"/>
    </vehicle>
    <vehicle id="237" depart="246.48">
        <route edges="-E12 -E4 -E1 E0 E7"/>
    </vehicle>
    <vehicle id="238" depart="247.52">
        <route edges="-E14 -E4 E2 -E3 -E0 E1 E4 E14"/>
    </vehicle>
    <vehicle id="239" depart="248.56">
        <route edges="-E7 E3 E11"/>
    </vehicle>
    <vehicle id="240" depart="249.60">
        <route edges="-E13 -E4 E2 E10"/>
    </vehicle>
    <vehicle id="241" depart="250.64">
        <route edges="-E7 -E0 E5"/>
    </vehicle>
    <vehicle id="242" depart="251.68">
        <route edges="-E13 -E4 -E1 E0 E7"/>
    </vehicle>
    <vehicle id="243" depart="252.72">
        <route edges="-E12 E13"/>
    </vehicle>
    <vehicle id="244" depart="253.76">
        <route edges="-E9 E2 -E3 E8"/>
    </vehicle>
    <vehicle id="245" depart="254.80">
        <route edges="-E6 E1 E9"/>
    </vehicle>
    <vehicle id="246" depart="255.84">
        <route edges="-E9 E4 E14"/>
    </vehicle>
    <vehicle id="247" depart="256.88">
        <route edges="-E12 -E4 E2 -E3 -E0 E1 E4 E12"/>
    </vehicle>
    <vehicle id="248" depart="257.92">
        <route edges="-E13 E12"/>
    </vehicle>
    <vehicle id="249" depart="258.96">
        <route edges="-E9 E4 E13"/>
    </vehicle>
    <vehicle id="250" depart="260.00">
        <route edges="-E13 -E4 -E1 E6"/>
    </vehicle>
    <vehicle id="251" depart="261.04">
        <route edges="-E10 -E2 E4 E13"/>
    </vehicle>
    <vehicle id="252" depart="262.08">
        <route edges="-E10 -E2 E4 E14"/>
    </vehicle>
    <vehicle id="253" depart="263.12">
        <route edges="-E13 -E4 E2 E10"/>
    </vehicle>
    <vehicle id="254" depart="264.16">
        <route edges="-E12 -E4 -E1 E6"/>
    </vehicle>
    <vehicle id="255" depart="265.20">
        <route edges="-E6 E1 E4"/>
    </vehicle>
    <vehicle id="256" depart="266.24">
        <route edges="-E7 -E0 E1 E4 E14"/>
    </vehicle>
    <vehicle id="257" depart="267.28">
        <route edges="-E8 E3 E11"/>
    </vehicle>
    <vehicle id="258" depart="268.32">
        <route edges="-E13 -E4 E2 -E3 -E0 E1 E4 E13"/>
    </vehicle>
    <vehicle id="259" depart="269.36">
        <route edges="-E13 -E4 E2 -E3 -E0 E1 E4 E13"/>
    </vehicle>
    <vehicle id="260" depart="270.40">
        <route edges="-E14 -E4 E2 -E3 -E0 E1 E4 E14"/>
    </vehicle>
    <vehicle id="261" depart="271.44">
        <route edges="-E13 -E4 E2 -E3 -E0 E1 E4 E13"/>
    </vehicle>
    <vehicle id="262" depart="272.48">
        <route edges="-E11 -E3 -E0 E1 E2 E11"/>
    </vehicle>
    <vehicle id="263" depart="273.52">
        <route edges="-E6 E0 E7"/>
    </vehicle>
    <vehicle id="264" depart="274.56">
        <route edges="-E9 -E1 E6"/>
    </vehicle>
    <vehicle id="265" depart="275.60">
        <route edges="-E13 -E4 E2 E11"/>
    </vehicle>
    <vehicle id="266" depart="276.64">
        <route edges="-E0 E1 E2 -E3 E8"/>
    </vehicle>
    <vehicle id="267" depart="277.68">
        <route edges="-E1 E0 E3"/>
    </vehicle>
    <vehicle id="268" depart="278.72">
        <route edges="-E14 -E4 E9"/>
    </vehicle>
    <vehicle id="269" depart="279.76">
        <route edges="-E14 -E4 -E1 E0 E7"/>
    </vehicle>
    <vehicle id="270" depart="280.80">
        <route edges="-E10 -E2 E9"/>
    </vehicle>
    <vehicle id="271" depart="281.84">
        <route edges="-E7 E3 E11"/>
    </vehicle>
    <vehicle id="272" depart="282.88">
        <route edges="-E12 -E4 E2 -E3 -E0 E1 E4 E12"/>
    </vehicle>
    <vehicle id="273" depart="283.92">
        <route edges="-E14 -E4 -E1 E5"/>
    </vehicle>
    <vehicle id="274" depart="284.96">
        <route edges="-E12 E14"/>
    </vehicle>
    <vehicle id="275" depart="286.00">
        <route edges="-E7 -E0 E1 E2 -E3 E7"/>
    </vehicle>
    <vehicle id="276" depart="287.04">
        <route edges="-E6 E0 E3 E10"/>
    </vehicle>
    <vehicle id="277" depart="288.08">
        <route edges="-E14 E13"/>
    </vehicle>
    <vehicle id="278" depart="289.12">
        <route edges="-E5 E0 E3 E10"/>
    </vehicle>
    <vehicle id="279" depart="290.16">
        <route edges="-E12 -E4 E2 -E3 -E0 E1 E4 E12"/>
    </vehicle>
    <vehicle id="280" depart="291.20">
        <route edges="-E8 -E0 E5"/>
    </vehicle>
    <vehicle id="281" depart="292.24">
        <route edges="-E5 E1 E2 E11"/>
    </vehicle>
    <vehicle id="282" depart="293.28">
        <route edges="-E13 -E4 -E1 E0 E8"/>
    </vehicle>
    <vehicle id="283" depart="294.32">
        <route edges="-E12 -E4 -E1 E5"/>
    </vehicle>
    <vehicle id="284" depart="295.36">
        <route edges="-E12 -E4 E9"/>
    </vehicle>
    <vehicle id="285" depart="296.40">
        <route edges="-E4 E2 -E3 -E0 E1 E4 E12"/>
    </vehicle>
    <vehicle id="286" depart="297.44">
        <route edges="-E14 -E4 -E1 E0 E7"/>
    </vehicle>
    <vehicle id="287" depart="298.48">
        <route edges="-E8 -E0 E1 E4 E14"/>
    </vehicle>
    <vehicle id="288" depart="299.52">
        <route edges="-E9 -E1 E5"/>
    </vehicle>
    <vehicle id="289" depart="300.56">
        <route edges="-E13 -E4 E2 E10"/>
    </vehicle>
    <vehicle id="290" depart="301.60">
        <route edges="-E5 E0 E8"/>
    </vehicle>
    <vehicle id="291" depart="302.64">
        <route edges="-E11 -E2 E4 E14"/>
    </vehicle>
    <vehicle id="292" depart="303.68">
        <route edges="-E6 E0 E7"/>
    </vehicle>
    <vehicle id="293" depart="304.72">
        <route edges="-E13 E14"/>
    </vehicle>
    <vehicle id="294" depart="305.76">
        <route edges="-E12 -E4 E9"/>
    </vehicle>
    <vehicle id="295" depart="306.80">
        <route edges="-E5 E1 E4 E12"/>
    </vehicle>
    <vehicle id="296" depart="307.84">
        <route edges="-E11 -E2 -E1 E6"/>
    </vehicle>
    <vehicle id="297" depart="308.88">
        <route edges="-E6 E5"/>
    </vehicle>
    <vehicle id="298" depart="309.92">
        <route edges="-E13 -E4 -E1 E0 E7"/>
    </vehicle>
    <vehicle id="299" depart="310.96">
        <route edges="-E5 E1 E9"/>
    </vehicle>
    <vehicle id="300" depart="312.00">
        <route edges="-E9 -E1 E6"/>
    </vehicle>
    <vehicle id="301" depart="313.04">
        <route edges="-E6 E0 E7"/>
    </vehicle>
    <vehicle id="302" depart="314.08">
        <route edges="E4 E14"/>
    </vehicle>
    <vehicle id="303" depart="315.12">
        <route edges="-E12 -E4 -E1 E6"/>
    </vehicle>
    <vehicle id="304" depart="316.16">
        <route edges="-E12 -E4 -E1 E0 E3 -E2"/>
    </vehicle>
    <vehicle id="305" depart="317.20">
        <route edges="-E11 -E2 E4 E13"/>
    </vehicle>
    <vehicle id="306" depart="318.24">
        <route edges="-E7 -E0 E5"/>
    </vehicle>