<configuration>
    <input>
        <net-file value="map.net.xml"/>
        <route-files value="random_demand.rou.xml"/>
    </input>
</configuration>