<?xml version="1.0" encoding="UTF-8"?>

<!-- generated on 2026-04-18T15:19:40.689247+03:00 by Eclipse SUMO netconvert 1.26.0
<netconvertConfiguration xmlns:xsi="http://www.w3.org/2001/XMLSchema-instance" xsi:noNamespaceSchemaLocation="http://sumo.dlr.de/xsd/netconvertConfiguration.xsd">

    <input>
        <sumo-net-file value="C:\Users\Furkan\Desktop\traficies\trafix\sumo\map.net.xml"/>
    </input>

    <output>
        <opendrive-output value="C:\Users\Furkan\Desktop\traficies\trafix\sumo\map.xodr"/>
    </output>

    <processing>
        <geometry.min-radius.fix.railways value="false"/>
        <geometry.avoid-overlap value="false"/>
        <geometry.max-grade.fix value="false"/>
        <offset.disable-normalization value="true"/>
        <lefthand value="0"/>
    </processing>

    <junctions>
        <no-turnarounds value="true"/>
        <junctions.corner-detail value="5"/>
        <junctions.limit-turn-speed value="5.50"/>
    </junctions>

    <pedestrian>
        <walkingareas value="0"/>
    </pedestrian>

    <report>
        <no-warnings value="true"/>
    </report>

</netconvertConfiguration>
-->

<OpenDRIVE>
    <header revMajor="1" revMinor="4" name="" version="1.00" date="Sat Apr 18 15:19:40 2026" north="150.00" south="-50.00" east="250.00" west="-50.00"/>
    <road name="" length="79.20000000" id="150" junction="-1">
        <link>
            <predecessor elementType="junction" elementId="1"/>
            <successor elementType="junction" elementId="2"/>
        </link>
        <type s="0" type="town"/>
        <planView>
            <geometry s="0.00000000" x="0.00000000" y="10.40000000" hdg="1.57079633" length="79.20000000">
                <line/>
            </geometry>
        </planView>
        <elevationProfile>
            <elevation s="0" a="0.00" b="0" c="0" d="0"/>
        </elevationProfile>
        <lateralProfile/>
        <lanes>
            <laneSection s="0">
                <center>
                    <lane id="0" type="none" level="true">
                        <link/>
                        <roadMark sOffset="0" type="solid" weight="standard" color="white" width="0.24">

                            <line length="6.0" space="0.0" tOffset="0.0" width="0.24" sOffset="0.0"/>

                        </roadMark>
                    </lane>
                </center>
                <right>
                    <lane id="-1" type="driving" level="true">
                        <link/>
                        <width sOffset="0" a="3.20" b="0" c="0" d="0"/>
                        <roadMark sOffset="0" type="broken" weight="standard" color="white" width="0.24">

                            <line length="3.0" space="6.0" tOffset="0.0" width="0.24" sOffset="0.0"/>

                        </roadMark>
                        <speed sOffset="0" max="13.89"/>
                    </lane>
                    <lane id="-2" type="driving" level="true">
                        <link/>
                        <width sOffset="0" a="3.20" b="0" c="0" d="0"/>
                        <roadMark sOffset="0" type="solid" weight="standard" color="white" width="0.24">

                            <line length="6.0" space="0.0" tOffset="0.0" width="0.24" sOffset="0.0"/>

                        </roadMark>
                        <speed sOffset="0" max="13.89"/>
                    </lane>
                 </right>
            </laneSection>
        </lanes>
        <objects/>
        <signals>
            <signal id="J0_10" s="79.20000000" t="-1.60000000" orientation="+" dynamic="yes" zOffset="0" country="OpenDRIVE" type="1000011" subtype="30" height="0.78000000" width="0.26000000">
                <validity fromLane="-1" toLane="-1"/>
            </signal>
            <signal id="J0_11" s="79.20000000" t="-1.60000000" orientation="+" dynamic="yes" zOffset="0" country="OpenDRIVE" type="1000011" subtype="10" height="0.78000000" width="0.26000000">
                <validity fromLane="-1" toLane="-1"/>
            </signal>
            <signal id="J0_8" s="79.20000000" t="-4.80000000" orientation="+" dynamic="yes" zOffset="0" country="OpenDRIVE" type="1000011" subtype="20" height="0.78000000" width="0.26000000">
                <validity fromLane="-2" toLane="-2"/>
            </signal>
            <signal id="J0_9" s="79.20000000" t="-4.80000000" orientation="+" dynamic="yes" zOffset="0" country="OpenDRIVE" type="1000011" subtype="30" height="0.78000000" width="0.26000000">
                <validity fromLane="-2" toLane="-2"/>
            </signal>
        </signals>
    </road>
    <road name="" length="79.20000000" id="151" junction="-1">
        <link>
            <predecessor elementType="junction" elementId="3"/>
            <successor elementType="junction" elementId="2"/>
        </link>
        <type s="0" type="town"/>
        <planView>
            <geometry s="0.00000000" x="89.60000000" y="100.00000000" hdg="3.14159265" length="79.20000000">
                <line/>
            </geometry>
        </planView>
        <elevationProfile>
            <elevation s="0" a="0.00" b="0" c="0" d="0"/>
        </elevationProfile>
        <lateralProfile/>
        <lanes>
            <laneSection s="0">
                <center>
                    <lane id="0" type="none" level="true">
                        <link/>
                        <roadMark sOffset="0" type="solid" weight="standard" color="white" width="0.24">

                            <line length="6.0" space="0.0" tOffset="0.0" width="0.24" sOffset="0.0"/>

                        </roadMark>
                    </lane>
                </center>
                <right>
                    <lane id="-1" type="driving" level="true">
                        <link/>
                        <width sOffset="0" a="3.20" b="0" c="0" d="0"/>
                        <roadMark sOffset="0" type="broken" weight="standard" color="white" width="0.24">

                            <line length="3.0" space="6.0" tOffset="0.0" width="0.24" sOffset="0.0"/>

                        </roadMark>
                        <speed sOffset="0" max="13.89"/>
                    </lane>
                    <lane id="-2" type="driving" level="true">
                        <link/>
                        <width sOffset="0" a="3.20" b="0" c="0" d="0"/>
                        <roadMark sOffset="0" type="solid" weight="standard" color="white" width="0.24">

                            <line length="6.0" space="0.0" tOffset="0.0" width="0.24" sOffset="0.0"/>

                        </roadMark>
                        <speed sOffset="0" max="13.89"/>
                    </lane>
                 </right>
            </laneSection>
        </lanes>
        <objects/>
        <signals>
            <signal id="J0_4" s="79.20000000" t="-4.80000000" orientation="+" dynamic="yes" zOffset="0" country="OpenDRIVE" type="1000011" subtype="20" height="0.78000000" width="0.26000000">
                <validity fromLane="-2" toLane="-2"/>
            </signal>
            <signal id="J0_5" s="79.20000000" t="-4.80000000" orientation="+" dynamic="yes" zOffset="0" country="OpenDRIVE" type="1000011" subtype="30" height="0.78000000" width="0.26000000">
                <validity fromLane="-2" toLane="-2"/>
            </signal>
            <signal id="J0_6" s="79.20000000" t="-1.60000000" orientation="+" dynamic="yes" zOffset="0" country="OpenDRIVE" type="1000011" subtype="30" height="0.78000000" width="0.26000000">
                <validity fromLane="-1" toLane="-1"/>
            </signal>
            <signal id="J0_7" s="79.20000000" t="-1.60000000" orientation="+" dynamic="yes" zOffset="0" country="OpenDRIVE" type="1000011" subtype="10" height="0.78000000" width="0.26000000">
                <validity fromLane="-1" toLane="-1"/>
            </signal>
        </signals>
    </road>
    <road name="" length="39.60000000" id="152" junction="-1">
        <link>
            <predecessor elementType="junction" elementId="4"/>
            <successor elementType="junction" elementId="5"/>
        </link>
        <type s="0" type="town"/>
        <planView>
            <geometry s="0.00000000" x="150.00000000" y="0.00000000" hdg="3.14159265" length="39.60000000">
                <line/>
            </geometry>
        </planView>
        <elevationProfile>
            <elevation s="0" a="0.00" b="0" c="0" d="0"/>
        </elevationProfile>
        <lateralProfile/>
        <lanes>
            <laneSection s="0">
                <center>
                    <lane id="0" type="none" level="true">
                        <link/>
                        <roadMark sOffset="0" type="solid" weight="standard" color="white" width="0.24">

                            <line length="6.0" space="0.0" tOffset="0.0" width="0.24" sOffset="0.0"/>

                        </roadMark>
                    </lane>
                </center>
                <right>
                    <lane id="-1" type="driving" level="true">
                        <link/>
                        <width sOffset="0" a="3.20" b="0" c="0" d="0"/>
                        <roadMark sOffset="0" type="broken" weight="standard" color="white" width="0.24">

                            <line length="3.0" space="6.0" tOffset="0.0" width="0.24" sOffset="0.0"/>

                        </roadMark>
                        <speed sOffset="0" max="13.89"/>
                    </lane>
                    <lane id="-2" type="driving" level="true">
                        <link/>
                        <width sOffset="0" a="3.20" b="0" c="0" d="0"/>
                        <roadMark sOffset="0" type="solid" weight="standard" color="white" width="0.24">

                            <line length="6.0" space="0.0" tOffset="0.0" width="0.24" sOffset="0.0"/>

                        </roadMark>
                        <speed sOffset="0" max="13.89"/>
                    </lane>
                 </right>
            </laneSection>
        </lanes>
        <objects/>
        <signals>
            <signal id="J3_4" s="39.60000000" t="-4.80000000" orientation="+" dynamic="yes" zOffset="0" country="OpenDRIVE" type="1000011" subtype="20" height="0.78000000" width="0.26000000">
                <validity fromLane="-2" toLane="-2"/>
            </signal>
            <signal id="J3_5" s="39.60000000" t="-4.80000000" orientation="+" dynamic="yes" zOffset="0" country="OpenDRIVE" type="1000011" subtype="30" height="0.78000000" width="0.26000000">
                <validity fromLane="-2" toLane="-2"/>
            </signal>
            <signal id="J3_6" s="39.60000000" t="-1.60000000" orientation="+" dynamic="yes" zOffset="0" country="OpenDRIVE" type="1000011" subtype="30" height="0.78000000" width="0.26000000">
                <validity fromLane="-1" toLane="-1"/>
            </signal>
            <signal id="J3_7" s="39.60000000" t="-1.60000000" orientation="+" dynamic="yes" zOffset="0" country="OpenDRIVE" type="1000011" subtype="10" height="0.78000000" width="0.26000000">
                <validity fromLane="-1" toLane="-1"/>
            </signal>
        </signals>
    </road>
    <road name="" length="39.60000000" id="153" junction="-1">
        <link>
            <predecessor elementType="junction" elementId="6"/>
            <successor elementType="junction" elementId="5"/>
        </link>
        <type s="0" type="town"/>
        <planView>
            <geometry s="0.00000000" x="100.00000000" y="-50.00000000" hdg="1.57079633" length="39.60000000">
                <line/>
            </geometry>
        </planView>
        <elevationProfile>
            <elevation s="0" a="0.00" b="0" c="0" d="0"/>
        </elevationProfile>
        <lateralProfile/>
        <lanes>
            <laneSection s="0">
                <center>
                    <lane id="0" type="none" level="true">
                        <link/>
                        <roadMark sOffset="0" type="solid" weight="standard" color="white" width="0.24">

                            <line length="6.0" space="0.0" tOffset="0.0" width="0.24" sOffset="0.0"/>

                        </roadMark>
                    </lane>
                </center>
                <right>
                    <lane id="-1" type="driving" level="true">
                        <link/>
                        <width sOffset="0" a="3.20" b="0" c="0" d="0"/>
                        <roadMark sOffset="0" type="broken" weight="standard" color="white" width="0.24">

                            <line length="3.0" space="6.0" tOffset="0.0" width="0.24" sOffset="0.0"/>

                        </roadMark>
                        <speed sOffset="0" max="13.89"/>
                    </lane>
                    <lane id="-2" type="driving" level="true">
                        <link/>
                        <width sOffset="0" a="3.20" b="0" c="0" d="0"/>
                        <roadMark sOffset="0" type="solid" weight="standard" color="white" width="0.24">

                            <line length="6.0" space="0.0" tOffset="0.0" width="0.24" sOffset="0.0"/>

                        </roadMark>
                        <speed sOffset="0" max="13.89"/>
                    </lane>
                 </right>
            </laneSection>
        </lanes>
        <objects/>
        <signals>
            <signal id="J3_10" s="39.60000000" t="-1.60000000" orientation="+" dynamic="yes" zOffset="0" country="OpenDRIVE" type="1000011" subtype="30" height="0.78000000" width="0.26000000">
                <validity fromLane="-1" toLane="-1"/>
            </signal>
            <signal id="J3_11" s="39.60000000" t="-1.60000000" orientation="+" dynamic="yes" zOffset="0" country="OpenDRIVE" type="1000011" subtype="10" height="0.78000000" width="0.26000000">
                <validity fromLane="-1" toLane="-1"/>
            </signal>
            <signal id="J3_8" s="39.60000000" t="-4.80000000" orientation="+" dynamic="yes" zOffset="0" country="OpenDRIVE" type="1000011" subtype="20" height="0.78000000" width="0.26000000">
                <validity fromLane="-2" toLane="-2"/>
            </signal>
            <signal id="J3_9" s="39.60000000" t="-4.80000000" orientation="+" dynamic="yes" zOffset="0" country="OpenDRIVE" type="1000011" subtype="30" height="0.78000000" width="0.26000000">
                <validity fromLane="-2" toLane="-2"/>
            </signal>
        </signals>
    </road>
    <road name="" length="39.60000000" id="154" junction="-1">
        <link>
            <predecessor elementType="junction" elementId="7"/>
            <successor elementType="junction" elementId="8"/>
        </link>
        <type s="0" type="town"/>
        <planView>
            <geometry s="0.00000000" x="200.00000000" y="150.00000000" hdg="-1.57079633" length="39.60000000">
                <line/>
            </geometry>
        </planView>
        <elevationProfile>
            <elevation s="0" a="0.00" b="0" c="0" d="0"/>
        </elevationProfile>
        <lateralProfile/>
        <lanes>
            <laneSection s="0">
                <center>
                    <lane id="0" type="none" level="true">
                        <link/>
                        <roadMark sOffset="0" type="solid" weight="standard" color="white" width="0.24">

                            <line length="6.0" space="0.0" tOffset="0.0" width="0.24" sOffset="0.0"/>

                        </roadMark>
                    </lane>
                </center>
                <right>
                    <lane id="-1" type="driving" level="true">
                        <link/>
                        <width sOffset="0" a="3.20" b="0" c="0" d="0"/>
                        <roadMark sOffset="0" type="broken" weight="standard" color="white" width="0.24">

                            <line length="3.0" space="6.0" tOffset="0.0" width="0.24" sOffset="0.0"/>

                        </roadMark>
                        <speed sOffset="0" max="13.89"/>
                    </lane>
                    <lane id="-2" type="driving" level="true">
                        <link/>
                        <width sOffset="0" a="3.20" b="0" c="0" d="0"/>
                        <roadMark sOffset="0" type="solid" weight="standard" color="white" width="0.24">

                            <line length="6.0" space="0.0" tOffset="0.0" width="0.24" sOffset="0.0"/>

                        </roadMark>
                        <speed sOffset="0" max="13.89"/>
                    </lane>
                 </right>
            </laneSection>
        </lanes>
        <objects/>
        <signals>
            <signal id="J4_0" s="39.60000000" t="-4.80000000" orientation="+" dynamic="yes" zOffset="0" country="OpenDRIVE" type="1000011" subtype="20" height="0.78000000" width="0.26000000">
                <validity fromLane="-2" toLane="-2"/>
            </signal>
            <signal id="J4_1" s="39.60000000" t="-4.80000000" orientation="+" dynamic="yes" zOffset="0" country="OpenDRIVE" type="1000011" subtype="30" height="0.78000000" width="0.26000000">
                <validity fromLane="-2" toLane="-2"/>
            </signal>
            <signal id="J4_2" s="39.60000000" t="-1.60000000" orientation="+" dynamic="yes" zOffset="0" country="OpenDRIVE" type="1000011" subtype="30" height="0.78000000" width="0.26000000">
                <validity fromLane="-1" toLane="-1"/>
            </signal>
            <signal id="J4_3" s="39.60000000" t="-1.60000000" orientation="+" dynamic="yes" zOffset="0" country="OpenDRIVE" type="1000011" subtype="10" height="0.78000000" width="0.26000000">
                <validity fromLane="-1" toLane="-1"/>
            </signal>
        </signals>
    </road>
    <road name="" length="39.60000000" id="155" junction="-1">
        <link>
            <predecessor elementType="junction" elementId="9"/>
            <successor elementType="junction" elementId="8"/>
        </link>
        <type s="0" type="town"/>
        <planView>
            <geometry s="0.00000000" x="200.00000000" y="50.00000000" hdg="1.57079633" length="39.60000000">
                <line/>
            </geometry>
        </planView>
        <elevationProfile>
            <elevation s="0" a="0.00" b="0" c="0" d="0"/>
        </elevationProfile>
        <lateralProfile/>
        <lanes>
            <laneSection s="0">
                <center>
                    <lane id="0" type="none" level="true">
                        <link/>
                        <roadMark sOffset="0" type="solid" weight="standard" color="white" width="0.24">

                            <line length="6.0" space="0.0" tOffset="0.0" width="0.24" sOffset="0.0"/>

                        </roadMark>
                    </lane>
                </center>
                <right>
                    <lane id="-1" type="driving" level="true">
                        <link/>
                        <width sOffset="0" a="3.20" b="0" c="0" d="0"/>
                        <roadMark sOffset="0" type="broken" weight="standard" color="white" width="0.24">

                            <line length="3.0" space="6.0" tOffset="0.0" width="0.24" sOffset="0.0"/>

                        </roadMark>
                        <speed sOffset="0" max="13.89"/>
                    </lane>
                    <lane id="-2" type="driving" level="true">
                        <link/>
                        <width sOffset="0" a="3.20" b="0" c="0" d="0"/>
                        <roadMark sOffset="0" type="solid" weight="standard" color="white" width="0.24">

                            <line length="6.0" space="0.0" tOffset="0.0" width="0.24" sOffset="0.0"/>

                        </roadMark>
                        <speed sOffset="0" max="13.89"/>
                    </lane>
                 </right>
            </laneSection>
        </lanes>
        <objects/>
        <signals>
            <signal id="J4_10" s="39.60000000" t="-1.60000000" orientation="+" dynamic="yes" zOffset="0" country="OpenDRIVE" type="1000011" subtype="30" height="0.78000000" width="0.26000000">
                <validity fromLane="-1" toLane="-1"/>
            </signal>
            <signal id="J4_11" s="39.60000000" t="-1.60000000" orientation="+" dynamic="yes" zOffset="0" country="OpenDRIVE" type="1000011" subtype="10" height="0.78000000" width="0.26000000">
                <validity fromLane="-1" toLane="-1"/>
            </signal>
            <signal id="J4_8" s="39.60000000" t="-4.80000000" orientation="+" dynamic="yes" zOffset="0" country="OpenDRIVE" type="1000011" subtype="20" height="0.78000000" width="0.26000000">
                <validity fromLane="-2" toLane="-2"/>
            </signal>
            <signal id="J4_9" s="39.60000000" t="-4.80000000" orientation="+" dynamic="yes" zOffset="0" country="OpenDRIVE" type="1000011" subtype="30" height="0.78000000" width="0.26000000">
                <validity fromLane="-2" toLane="-2"/>
            </signal>
        </signals>
    </road>
    <road name="" length="39.60000000" id="156" junction="-1">
        <link>
            <predecessor elementType="junction" elementId="10"/>
            <successor elementType="junction" elementId="8"/>
        </link>
        <type s="0" type="town"/>
        <planView>
            <geometry s="0.00000000" x="250.00000000" y="100.00000000" hdg="3.14159265" length="39.60000000">
                <line/>
            </geometry>
        </planView>
        <elevationProfile>
            <elevation s="0" a="0.00" b="0" c="0" d="0"/>
        </elevationProfile>
        <lateralProfile/>
        <lanes>
            <laneSection s="0">
                <center>
                    <lane id="0" type="none" level="true">
                        <link/>
                        <roadMark sOffset="0" type="solid" weight="standard" color="white" width="0.24">

                            <line length="6.0" space="0.0" tOffset="0.0" width="0.24" sOffset="0.0"/>

                        </roadMark>
                    </lane>
                </center>
                <right>
                    <lane id="-1" type="driving" level="true">
                        <link/>
                        <width sOffset="0" a="3.20" b="0" c="0" d="0"/>
                        <roadMark sOffset="0" type="broken" weight="standard" color="white" width="0.24">

                            <line length="3.0" space="6.0" tOffset="0.0" width="0.24" sOffset="0.0"/>

                        </roadMark>
                        <speed sOffset="0" max="13.89"/>
                    </lane>
                    <lane id="-2" type="driving" level="true">
                        <link/>
                        <width sOffset="0" a="3.20" b="0" c="0" d="0"/>
                        <roadMark sOffset="0" type="solid" weight="standard" color="white" width="0.24">

                            <line length="6.0" space="0.0" tOffset="0.0" width="0.24" sOffset="0.0"/>

                        </roadMark>
                        <speed sOffset="0" max="13.89"/>
                    </lane>
                 </right>
            </laneSection>
        </lanes>
        <objects/>
        <signals>
            <signal id="J4_4" s="39.60000000" t="-4.80000000" orientation="+" dynamic="yes" zOffset="0" country="OpenDRIVE" type="1000011" subtype="20" height="0.78000000" width="0.26000000">
                <validity fromLane="-2" toLane="-2"/>
            </signal>
            <signal id="J4_5" s="39.60000000" t="-4.80000000" orientation="+" dynamic="yes" zOffset="0" country="OpenDRIVE" type="1000011" subtype="30" height="0.78000000" width="0.26000000">
                <validity fromLane="-2" toLane="-2"/>
            </signal>
            <signal id="J4_6" s="39.60000000" t="-1.60000000" orientation="+" dynamic="yes" zOffset="0" country="OpenDRIVE" type="1000011" subtype="30" height="0.78000000" width="0.26000000">
                <validity fromLane="-1" toLane="-1"/>
            </signal>
            <signal id="J4_7" s="39.60000000" t="-1.60000000" orientation="+" dynamic="yes" zOffset="0" country="OpenDRIVE" type="1000011" subtype="10" height="0.78000000" width="0.26000000">
                <validity fromLane="-1" toLane="-1"/>
            </signal>
        </signals>
    </road>
    <road name="" length="79.20000000" id="157" junction="-1">
        <link>
            <predecessor elementType="junction" elementId="5"/>
            <successor elementType="junction" elementId="3"/>
        </link>
        <type s="0" type="town"/>
        <planView>
            <geometry s="0.00000000" x="100.00000000" y="10.40000000" hdg="1.57079633" length="79.20000000">
                <line/>
            </geometry>
        </planView>
        <elevationProfile>
            <elevation s="0" a="0.00" b="0" c="0" d="0"/>
        </elevationProfile>
        <lateralProfile/>
        <lanes>
            <laneSection s="0">
                <center>
                    <lane id="0" type="none" level="true">
                        <link/>
                        <roadMark sOffset="0" type="solid" weight="standard" color="white" width="0.24">

                            <line length="6.0" space="0.0" tOffset="0.0" width="0.24" sOffset="0.0"/>

                        </roadMark>
                    </lane>
                </center>
                <right>
                    <lane id="-1" type="driving" level="true">
                        <link/>
                        <width sOffset="0" a="3.20" b="0" c="0" d="0"/>
                        <roadMark sOffset="0" type="broken" weight="standard" color="white" width="0.24">

                            <line length="3.0" space="6.0" tOffset="0.0" width="0.24" sOffset="0.0"/>

                        </roadMark>
                        <speed sOffset="0" max="13.89"/>
                    </lane>
                    <lane id="-2" type="driving" level="true">
                        <link/>
                        <width sOffset="0" a="3.20" b="0" c="0" d="0"/>
                        <roadMark sOffset="0" type="solid" weight="standard" color="white" width="0.24">

                            <line length="6.0" space="0.0" tOffset="0.0" width="0.24" sOffset="0.0"/>

                        </roadMark>
                        <speed sOffset="0" max="13.89"/>
                    </lane>
                 </right>
            </laneSection>
        </lanes>
        <objects/>
        <signals>
            <signal id="J2_10" s="79.20000000" t="-1.60000000" orientation="+" dynamic="yes" zOffset="0" country="OpenDRIVE" type="1000011" subtype="30" height="0.78000000" width="0.26000000">
                <validity fromLane="-1" toLane="-1"/>
            </signal>
            <signal id="J2_11" s="79.20000000" t="-1.60000000" orientation="+" dynamic="yes" zOffset="0" country="OpenDRIVE" type="1000011" subtype="10" height="0.78000000" width="0.26000000">
                <validity fromLane="-1" toLane="-1"/>
            </signal>
            <signal id="J2_8" s="79.20000000" t="-4.80000000" orientation="+" dynamic="yes" zOffset="0" country="OpenDRIVE" type="1000011" subtype="20" height="0.78000000" width="0.26000000">
                <validity fromLane="-2" toLane="-2"/>
            </signal>
            <signal id="J2_9" s="79.20000000" t="-4.80000000" orientation="+" dynamic="yes" zOffset="0" country="OpenDRIVE" type="1000011" subtype="30" height="0.78000000" width="0.26000000">
                <validity fromLane="-2" toLane="-2"/>
            </signal>
        </signals>
    </road>
    <road name="" length="79.20000000" id="158" junction="-1">
        <link>
            <predecessor elementType="junction" elementId="5"/>
            <successor elementType="junction" elementId="1"/>
        </link>
        <type s="0" type="town"/>
        <planView>
            <geometry s="0.00000000" x="89.60000000" y="0.00000000" hdg="3.14159265" length="79.20000000">
                <line/>
            </geometry>
        </planView>
        <elevationProfile>
            <elevation s="0" a="0.00" b="0" c="0" d="0"/>
        </elevationProfile>
        <lateralProfile/>
        <lanes>
            <laneSection s="0">
                <center>
                    <lane id="0" type="none" level="true">
                        <link/>
                        <roadMark sOffset="0" type="solid" weight="standard" color="white" width="0.24">

                            <line length="6.0" space="0.0" tOffset="0.0" width="0.24" sOffset="0.0"/>

                        </roadMark>
                    </lane>
                </center>
                <right>
                    <lane id="-1" type="driving" level="true">
                        <link/>
                        <width sOffset="0" a="3.20" b="0" c="0" d="0"/>
                        <roadMark sOffset="0" type="broken" weight="standard" color="white" width="0.24">

                            <line length="3.0" space="6.0" tOffset="0.0" width="0.24" sOffset="0.0"/>

                        </roadMark>
                        <speed sOffset="0" max="13.89"/>
                    </lane>
                    <lane id="-2" type="driving" level="true">
                        <link/>
                        <width sOffset="0" a="3.20" b="0" c="0" d="0"/>
                        <roadMark sOffset="0" type="solid" weight="standard" color="white" width="0.24">

                            <line length="6.0" space="0.0" tOffset="0.0" width="0.24" sOffset="0.0"/>

                        </roadMark>
                        <speed sOffset="0" max="13.89"/>
                    </lane>
                 </right>
            </laneSection>
        </lanes>
        <objects/>
        <signals>
            <signal id="J1_4" s="79.20000000" t="-4.80000000" orientation="+" dynamic="yes" zOffset="0" country="OpenDRIVE" type="1000011" subtype="20" height="0.78000000" width="0.26000000">
                <validity fromLane="-2" toLane="-2"/>
            </signal>