<?xml version="1.0" encoding="UTF-8"?>

<!-- generated on 2026-04-18T14:04:36.737881+03:00 by Eclipse SUMO netconvert 1.26.0
<netconvertConfiguration xmlns:xsi="http://www.w3.org/2001/XMLSchema-instance" xsi:noNamespaceSchemaLocation="http://sumo.dlr.de/xsd/netconvertConfiguration.xsd">

    <input>
        <opendrive-files value="C:\Users\Furkan\Downloads\CARLA_0.9.16\CarlaUE4\Content\Carla\Maps\OpenDrive\Town03.xodr"/>
    </input>

    <output>
        <output-file value="C:\Users\Furkan\Desktop\traficies\trafix\sumo\Town03.net.xml"/>
        <output.street-names value="true"/>
        <output.original-names value="true"/>
    </output>

    <processing>
        <geometry.remove value="true"/>
        <roundabouts.guess value="true"/>
    </processing>

    <building_defaults>
        <default.sidewalk-width value="2.0"/>
    </building_defaults>

    <tls_building>
        <tls.discard-simple value="true"/>
        <tls.join value="true"/>
        <tls.guess-signals value="true"/>
    </tls_building>

    <ramp_guessing>
        <ramps.guess value="true"/>
    </ramp_guessing>

    <junctions>
        <no-turnarounds value="true"/>
        <junctions.join value="true"/>
    </junctions>

    <pedestrian>
        <sidewalks.guess value="true"/>
        <sidewalks.guess.min-speed value="0"/>
        <crossings.guess value="true"/>
    </pedestrian>

    <formats>
        <opendrive.import-all-lanes value="true"/>
    </formats>

</netconvertConfiguration>
-->

<net version="1.20" junctionCornerDetail="5" rectangularLaneCut="true" walkingareas="true" limitTurnSpeed="5.50" xmlns:xsi="http://www.w3.org/2001/XMLSchema-instance" xsi:noNamespaceSchemaLocation="http://sumo.dlr.de/xsd/net_file.xsd">

    <location netOffset="286.97,269.44" convBoundary="0.00,0.00,597.83,582.57" origBoundary="0.000000,0.000000,0.000000,0.000000" projParameter="+proj=tmerc +lat_0=0 +lon_0=0 +k=1 +x_0=0 +y_0=0 +datum=WGS84 +units=m  +vunits=m +no_defs "/>


    <edge id=":1019_0" function="internal">
        <lane id=":1019_0_0" index="0" disallow="pedestrian" speed="13.89" length="21.85" width="2.00" shape="300.65,91.00 300.50,112.89">
            <param key="origId" value="1030_9"/>
        </lane>
        <lane id=":1019_0_1" index="1" disallow="pedestrian" speed="13.89" length="21.85" width="2.00" shape="298.65,91.00 298.50,112.88">
            <param key="origId" value="1030_8"/>
        </lane>
        <lane id=":1019_0_2" index="2" disallow="all" speed="1.39" length="21.85" width="0.63" shape="297.34,91.00 297.19,112.88">
            <param key="origId" value="1030_7"/>
        </lane>
        <lane id=":1019_0_3" index="3" disallow="all" speed="1.39" length="21.85" width="2.50" shape="295.77,91.00 295.62,112.87">
            <param key="origId" value="1030_6"/>
        </lane>
        <lane id=":1019_0_4" index="4" disallow="pedestrian tram rail_urban rail rail_electric rail_fast ship container cable_car subway aircraft wheelchair scooter drone" speed="13.89" length="21.85" width="3.50" shape="292.77,91.00 292.62,112.85">
            <param key="origId" value="1030_5"/>
        </lane>
        <lane id=":1019_0_5" index="5" disallow="pedestrian tram rail_urban rail rail_electric rail_fast ship container cable_car subway aircraft wheelchair scooter drone" speed="13.89" length="21.85" width="3.50" shape="289.27,91.00 289.12,112.83">
            <param key="origId" value="1030_4"/>
        </lane>
        <lane id=":1019_0_6" index="6" disallow="all" speed="1.39" length="21.85" width="0.50" shape="287.27,91.00 287.12,112.82">
            <param key="origId" value="1030_3"/>
        </lane>
        <lane id=":1019_0_7" index="7" disallow="all" speed="1.39" length="21.85" width="3.50" shape="285.27,91.00 285.12,112.81">
            <param key="origId" value="1030_2"/>
        </lane>
        <lane id=":1019_0_8" index="8" disallow="all" speed="1.39" length="21.85" width="0.50" shape="283.27,91.00 283.12,112.80">
            <param key="origId" value="1030_1"/>
        </lane>
    </edge>
    <edge id=":1019_9" function="internal">
        <lane id=":1019_9_0" index="0" disallow="all" speed="1.39" length="21.76" width="2.50" shape="274.62,112.76 274.77,91.00">
            <param key="origId" value="1031_-3"/>
        </lane>
    </edge>
    <edge id=":1019_10" function="internal">
        <lane id=":1019_10_0" index="0" disallow="pedestrian tram rail_urban rail rail_electric rail_fast ship container cable_car subway aircraft wheelchair scooter drone" speed="11.07" length="4.57" width="3.50" shape="277.62,112.77 276.82,108.27">
            <param key="origId" value="1020_-1"/>
        </lane>
    </edge>
    <edge id=":1019_11" function="internal">
        <lane id=":1019_11_0" index="0" disallow="pedestrian tram rail_urban rail rail_electric rail_fast ship container cable_car subway aircraft wheelchair scooter drone" speed="13.89" length="21.78" width="3.50" shape="277.62,112.77 277.77,91.00">
            <param key="origId" value="1031_-2"/>
        </lane>
        <lane id=":1019_11_1" index="1" disallow="pedestrian tram rail_urban rail rail_electric rail_fast ship container cable_car subway aircraft wheelchair scooter drone" speed="13.89" length="21.78" width="3.50" shape="281.12,112.79 281.27,91.00">
            <param key="origId" value="1031_-1"/>
        </lane>
    </edge>
    <edge id=":1019_13" function="internal">
        <lane id=":1019_13_0" index="0" disallow="pedestrian tram rail_urban rail rail_electric rail_fast ship container cable_car subway aircraft wheelchair scooter drone" speed="11.07" length="16.18" width="3.50" shape="276.82,108.27 274.38,104.38 270.28,101.10 264.54,98.43">
            <param key="origId" value="1020_-1"/>
        </lane>
    </edge>
    <edge id=":1019_c0" function="crossing" crossingEdges="-32 32">
        <lane id=":1019_c0_0" index="0" allow="pedestrian" speed="2.78" length="30.77" width="4.00" shape="270.88,93.00 301.65,93.00" outlineShape="270.88,91.00 301.65,91.00 303.63,95.00 303.65,91.00 301.65,91.00 301.65,95.00 270.88,95.00 268.80,94.27 269.71,93.97 270.36,93.32 270.75,92.33"/>
    </edge>
    <edge id=":1019_c1" function="crossing" crossingEdges="-58">
        <lane id=":1019_c1_0" index="0" allow="pedestrian" speed="2.78" length="6.64" width="4.00" shape="265.83,100.75 268.07,94.51" outlineShape="263.94,100.07 266.19,93.83 267.62,94.22 268.80,94.27 269.71,93.97 270.36,93.32 270.41,93.21 269.95,95.18 267.71,101.43 266.01,104.93 265.21,104.43"/>
    </edge>
    <edge id=":1019_c2" function="crossing" crossingEdges="31 -31">
        <lane id=":1019_c2_0" index="0" allow="pedestrian" speed="2.78" length="30.77" width="4.00" shape="301.52,110.90 270.75,110.74" outlineShape="301.50,112.90 270.74,112.74 270.52,110.67 269.86,108.81 301.53,108.90 301.60,112.90 303.50,112.91 303.65,91.00 301.65,91.00 301.65,95.00 301.53,108.90"/>
    </edge>
    <edge id=":1019_w0" function="walkingarea">
        <lane id=":1019_w0_0" index="0" allow="pedestrian" speed="2.78" length="14.02" width="4.00" shape="301.53,108.90 301.50,112.90 303.50,112.91 303.65,91.00 301.65,91.00 301.65,95.00"/>
    </edge>
    <edge id=":1019_w1" function="walkingarea">
        <lane id=":1019_w1_0" index="0" allow="pedestrian" speed="2.78" length="3.12" width="4.00" shape="270.88,91.00 268.88,91.00 266.19,93.83 267.62,94.22 268.80,94.27 269.71,93.97 270.36,93.32 270.75,92.33"/>
    </edge>
    <edge id=":1019_w2" function="walkingarea">
        <lane id=":1019_w2_0" index="0" allow="pedestrian" speed="2.78" length="8.77" width="4.00" shape="263.94,100.07 262.59,103.84 261.91,105.72 268.74,112.72 270.74,112.74 270.52,110.67 269.86,108.81 268.76,107.15 267.21,105.69 265.21,104.43"/>
    </edge>
    <edge id=":103_0" function="internal">
        <lane id=":103_0_0" index="0" disallow="pedestrian tram rail_urban rail rail_electric rail_fast ship container cable_car subway aircraft wheelchair scooter drone" speed="10.55" length="21.45" width="3.50" shape="308.17,138.65 301.29,139.55 296.36,142.47 293.39,147.42 292.95,150.40">
            <param key="origId" value="203_1"/>
            <param key="signalID" value="1997"/>
        </lane>
    </edge>
    <edge id=":103_1" function="internal">
        <lane id=":103_1_0" index="0" disallow="pedestrian tram rail_urban rail rail_electric rail_fast ship container cable_car subway aircraft wheelchair scooter drone" speed="13.89" length="41.81" width="3.50" shape="308.17,138.65 266.36,138.50">
            <param key="origId" value="144_1"/>
            <param key="signalID" value="1997"/>
        </lane>
    </edge>
    <edge id=":103_2" function="internal">
        <lane id=":103_2_0" index="0" disallow="pedestrian tram rail_urban rail rail_electric rail_fast ship container cable_car subway aircraft wheelchair scooter drone" speed="12.82" length="7.71" width="3.50" shape="308.17,138.65 300.51,137.77">
            <param key="origId" value="227_1"/>
            <param key="signalID" value="1995 1996"/>
        </lane>
    </edge>
    <edge id=":103_18" function="internal">
        <lane id=":103_18_0" index="0" disallow="pedestrian tram rail_urban rail rail_electric rail_fast ship container cable_car subway aircraft wheelchair scooter drone" speed="10.55" length="4.04" width="3.50" shape="292.95,150.40 292.36,154.40">
            <param key="origId" value="203_1"/>
            <param key="signalID" value="1997"/>
        </lane>
    </edge>
    <edge id=":103_19" function="internal">
        <lane id=":103_19_0" index="0" disallow="pedestrian tram rail_urban rail rail_electric rail_fast ship container cable_car subway aircraft wheelchair scooter drone" speed="12.82" length="29.99" width="3.50" shape="300.51,137.77 296.28,137.28 287.80,133.56 282.74,127.49 281.09,119.08">
            <param key="origId" value="227_1"/>
            <param key="signalID" value="1995 1996"/>
        </lane>
    </edge>
    <edge id=":103_3" function="internal">
        <lane id=":103_3_0" index="0" disallow="all" speed="1.39" length="35.26" width="2.50" shape="295.59,119.15 295.36,154.42">
            <param key="origId" value="183_6"/>
        </lane>
    </edge>
    <edge id=":103_4" function="internal">
        <lane id=":103_4_0" index="0" disallow="pedestrian tram rail_urban rail rail_electric rail_fast ship container cable_car subway aircraft wheelchair scooter drone" speed="10.61" length="6.06" width="3.50" shape="292.59,119.14 293.41,125.15">
            <param key="origId" value="222_1"/>
        </lane>
    </edge>
    <edge id=":103_5" function="internal">
        <lane id=":103_5_0" index="0" disallow="pedestrian tram rail_urban rail rail_electric rail_fast ship container cable_car subway aircraft wheelchair scooter drone" speed="13.89" length="35.26" width="3.50" shape="292.59,119.14 292.36,154.40">
            <param key="origId" value="183_5"/>
            <param key="signalID" value="1995"/>
        </lane>
        <lane id=":103_5_1" index="1" disallow="pedestrian tram rail_urban rail rail_electric rail_fast ship container cable_car subway aircraft wheelchair scooter drone" speed="13.89" length="35.26" width="3.50" shape="289.09,119.12 288.86,154.38">
            <param key="origId" value="183_4"/>
            <param key="signalID" value="1995"/>
        </lane>
    </edge>
    <edge id=":103_7" function="internal">
        <lane id=":103_7_0" index="0" disallow="pedestrian tram rail_urban rail rail_electric rail_fast ship container cable_car subway aircraft wheelchair scooter drone" speed="12.10" length="15.62" width="3.50" shape="289.09,119.12 287.63,127.79 283.72,133.39">
            <param key="origId" value="123_1"/>
            <param key="signalID" value="1994"/>
        </lane>
    </edge>
    <edge id=":103_8" function="internal">
        <lane id=":103_8_0" index="0" disallow="all" speed="1.39" length="35.25" width="0.50" shape="287.09,119.11 286.86,154.36">
            <param key="origId" value="183_3"/>
        </lane>
        <lane id=":103_8_1" index="1" disallow="all" speed="1.39" length="35.25" width="0.50" shape="283.09,119.09 282.86,154.34">
            <param key="origId" value="183_1"/>
        </lane>
    </edge>
    <edge id=":103_20" function="internal">
        <lane id=":103_20_0" index="0" disallow="pedestrian tram rail_urban rail rail_electric rail_fast ship container cable_car subway aircraft wheelchair scooter drone" speed="10.61" length="19.40" width="3.50" shape="293.41,125.15 293.53,126.06 296.45,131.03 301.35,134.07 308.21,135.15">
            <param key="origId" value="222_1"/>
        </lane>
    </edge>
    <edge id=":103_21" function="internal">
        <lane id=":103_21_0" index="0" disallow="pedestrian tram rail_urban rail rail_electric rail_fast ship container cable_car subway aircraft wheelchair scooter drone" speed="12.10" length="18.53" width="3.50" shape="283.72,133.39 283.35,133.91 276.26,137.48 266.36,138.50">
            <param key="origId" value="123_1"/>
            <param key="signalID" value="1994"/>
        </lane>
    </edge>
    <edge id=":103_10" function="internal">
        <lane id=":103_10_0" index="0" disallow="pedestrian tram rail_urban rail rail_electric rail_fast ship container cable_car subway aircraft wheelchair scooter drone" speed="9.81" length="18.02" width="3.50" shape="266.44,135.00 271.28,134.10 274.76,131.14 276.86,126.13 277.17,123.06">
            <param key="origId" value="130_-1"/>
            <param key="signalID" value="1996"/>
        </lane>
    </edge>
    <edge id=":103_11" function="internal">
        <lane id=":103_11_0" index="0" disallow="pedestrian tram rail_urban rail rail_electric rail_fast ship container cable_car subway aircraft wheelchair scooter drone" speed="13.89" length="41.78" width="3.50" shape="266.44,135.00 308.21,135.15">
            <param key="origId" value="139_-1"/>
            <param key="signalID" value="1996"/>
        </lane>
    </edge>
    <edge id=":103_12" function="internal">
        <lane id=":103_12_0" index="0" disallow="pedestrian tram rail_urban rail rail_electric rail_fast ship container cable_car subway aircraft wheelchair scooter drone" speed="12.15" length="6.25" width="3.50" shape="266.44,135.00 272.62,135.88">
            <param key="origId" value="110_-1"/>
            <param key="signalID" value="1996 1997"/>
        </lane>
    </edge>
    <edge id=":103_22" function="internal">
        <lane id=":103_22_0" index="0" disallow="pedestrian tram rail_urban rail rail_electric rail_fast ship container cable_car subway aircraft wheelchair scooter drone" speed="9.81" length="4.02" width="3.50" shape="277.17,123.06 277.59,119.06">
            <param key="origId" value="130_-1"/>
            <param key="signalID" value="1996"/>
        </lane>
    </edge>
    <edge id=":103_23" function="internal">
        <lane id=":103_23_0" index="0" disallow="pedestrian tram rail_urban rail rail_electric rail_fast ship container cable_car subway aircraft wheelchair scooter drone" speed="12.15" length="27.35" width="3.50" shape="272.62,135.88 276.29,136.41 283.31,140.10 287.50,146.09 288.86,154.38">
            <param key="origId" value="110_-1"/>
            <param key="signalID" value="1996 1997"/>
        </lane>
    </edge>
    <edge id=":103_13" function="internal">
        <lane id=":103_13_0" index="0" disallow="all" speed="1.39" length="35.24" width="2.50" shape="274.36,154.28 274.59,119.04">
            <param key="origId" value="184_-3"/>
        </lane>
    </edge>
    <edge id=":103_14" function="internal">
        <lane id=":103_14_0" index="0" disallow="pedestrian tram rail_urban rail rail_electric rail_fast ship container cable_car subway aircraft wheelchair scooter drone" speed="9.86" length="7.16" width="3.50" shape="277.36,154.30 276.71,147.48 276.59,147.20">
            <param key="origId" value="104_-1"/>
        </lane>
    </edge>
    <edge id=":103_15" function="internal">
        <lane id=":103_15_0" index="0" disallow="pedestrian tram rail_urban rail rail_electric rail_fast ship container cable_car subway aircraft wheelchair scooter drone" speed="13.89" length="35.25" width="3.50" shape="277.36,154.30 277.59,119.06">
            <param key="origId" value="184_-2"/>
            <param key="signalID" value="1994"/>
        </lane>
        <lane id=":103_15_1" index="1" disallow="pedestrian tram rail_urban rail rail_electric rail_fast ship container cable_car subway aircraft wheelchair scooter drone" speed="13.89" length="35.25" width="3.50" shape="280.86,154.33 281.09,119.08">
            <param key="origId" value="184_-1"/>
            <param key="signalID" value="1994"/>
        </lane>
    </edge>
    <edge id=":103_17" function="internal">
        <lane id=":103_17_0" index="0" disallow="pedestrian tram rail_urban rail rail_electric rail_fast ship container cable_car subway aircraft wheelchair scooter drone" speed="12.76" length="4.44" width="3.50" shape="280.86,154.33 281.76,149.97">
            <param key="origId" value="213_-1"/>
            <param key="signalID" value="1994 1995"/>
        </lane>
    </edge>
    <edge id=":103_24" function="internal">
        <lane id=":103_24_0" index="0" disallow="pedestrian tram rail_urban rail rail_electric rail_fast ship container cable_car subway aircraft wheelchair scooter drone" speed="9.86" length="14.55" width="3.50" shape="276.59,147.20 274.66,142.58 271.21,139.58 266.36,138.50">
            <param key="origId" value="104_-1"/>
        </lane>
    </edge>
    <edge id=":103_25" function="internal">
        <lane id=":103_25_0" index="0" disallow="pedestrian tram rail_urban rail rail_electric rail_fast ship container cable_car subway aircraft wheelchair scooter drone" speed="12.76" length="33.41" width="3.50" shape="281.76,149.97 282.62,145.79 287.76,139.75 296.29,136.20 308.21,135.15">
            <param key="origId" value="213_-1"/>
            <param key="signalID" value="1994 1995"/>
        </lane>
    </edge>
    <edge id=":103_c0" function="crossing" crossingEdges="-76 76">
        <lane id=":103_c0_0" index="0" allow="pedestrian" speed="2.78" length="27.27" width="4.00" shape="306.38,123.24 306.00,150.51" outlineShape="308.38,123.27 308.00,150.53 305.94,150.62 304.26,150.93 303.99,151.04 304.39,122.71 304.53,122.77 306.27,123.13"/>
    </edge>
    <edge id=":103_c1" function="crossing" crossingEdges="-31 31">
        <lane id=":103_c1_0" index="0" allow="pedestrian" speed="2.78" length="30.77" width="4.00" shape="270.69,121.02 301.46,121.19" outlineShape="270.70,119.02 301.47,119.19 301.66,120.40 302.23,121.41 303.19,122.20 303.77,122.44 301.45,123.19 270.68,123.02 270.28,123.02 270.58,121.37"/>
    </edge>
    <edge id=":103_c2" function="crossing" crossingEdges="24 -24">
        <lane id=":103_c2_0" index="0" allow="pedestrian" speed="2.78" length="20.27" width="4.00" shape="268.17,146.93 268.63,126.67" outlineShape="266.17,146.89 266.63,126.62 267.86,126.44 268.87,125.82 269.66,124.77 269.81,124.38 270.63,126.71 270.17,146.98 269.60,149.20 269.42,148.78 268.58,147.75 267.50,147.12"/>
    </edge>
    <edge id=":103_c3" function="crossing" crossingEdges="30 -30">
        <lane id=":103_c3_0" index="0" allow="pedestrian" speed="2.78" length="30.77" width="4.00" shape="301.26,152.45 270.49,152.26" outlineShape="301.24,154.45 270.48,154.26 270.37,152.03 270.03,150.26 270.50,150.26 301.27,150.45 303.57,151.21 302.94,151.47 302.01,152.23 301.44,153.23"/>
    </edge>
    <edge id=":103_w0" function="walkingarea">
        <lane id=":103_w0_0" index="0" allow="pedestrian" speed="2.78" length="4.71" width="4.00" shape="301.24,154.45 303.24,154.47 307.97,152.53 308.00,150.53 305.94,150.62 304.26,150.93 302.94,151.47 302.01,152.23 301.44,153.23"/>
    </edge>
    <edge id=":103_w1" function="walkingarea">
        <lane id=":103_w1_0" index="0" allow="pedestrian" speed="2.78" length="4.86" width="4.00" shape="308.38,123.27 308.41,121.27 303.47,119.20 301.47,119.19 301.66,120.40 302.23,121.41 303.19,122.20 304.53,122.77 306.27,123.13"/>
    </edge>
    <edge id=":103_w2" function="walkingarea">
        <lane id=":103_w2_0" index="0" allow="pedestrian" speed="2.78" length="5.27" width="4.00" shape="270.70,119.02 268.70,119.01 266.67,124.62 266.63,126.62 267.86,126.44 268.87,125.82 269.66,124.77 270.23,123.28 270.58,121.37"/>
    </edge>
    <edge id=":103_w3" function="walkingarea">
        <lane id=":103_w3_0" index="0" allow="pedestrian" speed="2.78" length="5.18" width="4.00" shape="266.17,146.89 266.12,148.89 268.48,154.25 270.48,154.26 270.37,152.03 270.02,150.21 269.42,148.78 268.58,147.75 267.50,147.12"/>
    </edge>
    <edge id=":1038_0" function="internal">
        <lane id=":1038_0_0" index="0" disallow="pedestrian" speed="13.89" length="35.55" width="2.00" shape="473.47,221.48 437.92,221.38">
            <param key="origId" value="1050_-6"/>
        </lane>
        <lane id=":1038_0_1" index="1" disallow="pedestrian" speed="13.89" length="35.55" width="2.00" shape="473.47,219.48 437.92,219.38">
            <param key="origId" value="1050_-5"/>
        </lane>
        <lane id=":1038_0_2" index="2" disallow="pedestrian" speed="13.89" length="35.55" width="2.00" shape="473.48,217.48 437.93,217.38">
            <param key="origId" value="1050_-4"/>
        </lane>
        <lane id=":1038_0_3" index="3" disallow="all" speed="1.39" length="35.55" width="0.63" shape="473.48,216.16 437.93,216.07">
            <param key="origId" value="1050_-3"/>
        </lane>
        <lane id=":1038_0_4" index="4" disallow="pedestrian tram rail_urban rail rail_electric rail_fast ship container cable_car subway aircraft wheelchair scooter drone" speed="13.89" length="35.55" width="3.50" shape="473.49,210.59 437.94,210.50">
            <param key="origId" value="1050_-1"/>
        </lane>
    </edge>
    <edge id=":1038_5" function="internal">
        <lane id=":1038_5_0" index="0" disallow="pedestrian tram rail_urban rail rail_electric rail_fast ship container cable_car subway aircraft wheelchair scooter drone" speed="11.71" length="6.00" width="3.50" shape="473.49,210.59 467.55,209.72,0.03">
            <param key="origId" value="1066_-1"/>
        </lane>
    </edge>
    <edge id=":1038_10" function="internal">
        <lane id=":1038_10_0" index="0" disallow="pedestrian tram rail_urban rail rail_electric rail_fast ship container cable_car subway aircraft wheelchair scooter drone" speed="11.71" length="25.43" width="3.50" shape="467.55,209.72,0.03 465.03,209.35,0.04 458.99,205.65,0.07 455.36,199.51,0.11 454.15,190.93,0.15">
            <param key="origId" value="1066_-1"/>
        </lane>
    </edge>
    <edge id=":1038_6" function="internal">
        <lane id=":1038_6_0" index="0" disallow="pedestrian tram rail_urban rail rail_electric rail_fast ship container cable_car subway aircraft wheelchair scooter drone" speed="10.65" length="25.80" width="3.50" shape="457.65,190.93,0.15 458.64,197.99,0.11 461.61,203.03,0.07 466.57,206.07,0.04 473.50,207.09">
            <param key="origId" value="1059_-1"/>
        </lane>
    </edge>
    <edge id=":1038_7" function="internal">
        <lane id=":1038_7_0" index="0" disallow="pedestrian tram rail_urban rail rail_electric rail_fast ship container cable_car subway aircraft wheelchair scooter drone" speed="11.74" length="31.69" width="3.50" shape="457.65,190.93,0.15 456.42,199.50,0.11 452.72,205.62,0.08 446.56,209.29,0.04 437.94,210.50">
            <param key="origId" value="1070_-1"/>
        </lane>
    </edge>
    <edge id=":1038_8" function="internal">
        <lane id=":1038_8_0" index="0" disallow="pedestrian tram rail_urban rail rail_electric rail_fast ship container cable_car subway aircraft wheelchair scooter drone" speed="10.68" length="22.00" width="3.50" shape="437.94,207.00 445.03,206.01,0.04 450.10,203.00,0.08 453.14,197.97,0.11 453.57,194.93,0.13">
            <param key="origId" value="1073_1"/>
        </lane>
    </edge>
    <edge id=":1038_9" function="internal">
        <lane id=":1038_9_0" index="0" disallow="pedestrian tram rail_urban rail rail_electric rail_fast ship container cable_car subway aircraft wheelchair scooter drone" speed="13.89" length="35.56" width="3.50" shape="437.94,207.00 473.50,207.09">
            <param key="origId" value="1049_1"/>
        </lane>
    </edge>
    <edge id=":1038_11" function="internal">
        <lane id=":1038_11_0" index="0" disallow="pedestrian tram rail_urban rail rail_electric rail_fast ship container cable_car subway aircraft wheelchair scooter drone" speed="10.68" length="4.04" width="3.50" shape="453.57,194.93,0.13 454.15,190.93,0.15">
            <param key="origId" value="1073_1"/>
        </lane>
    </edge>
    <edge id=":1038_c0" function="crossing" crossingEdges="47 -47">
        <lane id=":1038_c0_0" index="0" allow="pedestrian" speed="2.78" length="27.27" width="4.00" shape="471.53,195.20 471.46,222.47" outlineShape="473.53,195.21 473.46,222.48 469.46,224.47 473.46,224.48 473.46,222.58 469.46,222.47 469.53,195.20 469.91,193.08,0.10 469.98,193.30,0.10 470.53,194.13,0.07 471.31,194.73,0.05 472.31,195.09,0.03"/>
    </edge>
    <edge id=":1038_c1" function="crossing" crossingEdges="80 -80">
        <lane id=":1038_c1_0" index="0" allow="pedestrian" speed="2.78" length="27.27" width="4.00" shape="442.26,192.93,0.14 469.53,192.93,0.14" outlineShape="442.26,190.93,0.14 469.53,190.93,0.14 469.64,190.93,0.15 469.53,190.93,0.15 469.65,192.23,0.12 469.98,193.30,0.10 470.53,194.13,0.07 471.31,194.73,0.05 471.87,194.93,0.04 439.50,194.93,0.14 439.49,194.93,0.03 440.35,194.65,0.05 441.19,194.07,0.08 441.79,193.26,0.10 442.15,192.21,0.12"/>
    </edge>
    <edge id=":1038_c2" function="crossing" crossingEdges="-48 48">
        <lane id=":1038_c2_0" index="0" allow="pedestrian" speed="2.78" length="27.27" width="4.00" shape="439.92,222.39 439.96,195.12" outlineShape="437.92,222.38 437.96,195.12 437.96,195.01 437.96,195.12 439.28,195.00,0.03 440.35,194.65,0.05 441.19,194.07,0.08 441.79,193.26,0.10 441.97,192.74,0.11 441.97,192.73 441.92,222.39"/>
    </edge>
    <edge id=":1038_w0" function="walkingarea">
        <lane id=":1038_w0_0" index="0" allow="pedestrian" speed="2.78" length="23.11" width="4.00" shape="441.92,222.39 437.92,222.38 437.91,224.38 473.46,224.48 473.46,222.48 469.46,222.47"/>
    </edge>
    <edge id=":1038_w1" function="walkingarea">
        <lane id=":1038_w1_0" index="0" allow="pedestrian" speed="2.78" length="3.42" width="4.00" shape="473.53,195.21 473.53,193.21 471.53,190.93,0.15 469.53,190.93,0.15 469.65,192.23,0.12 469.98,193.30,0.10 470.53,194.13,0.07 471.31,194.73,0.05 472.31,195.09,0.03"/>
    </edge>
    <edge id=":1038_w2" function="walkingarea">
        <lane id=":1038_w2_0" index="0" allow="pedestrian" speed="2.78" length="3.51" width="4.00" shape="442.26,190.93,0.15 440.26,190.93,0.15 437.97,193.12 437.96,195.12 439.28,195.00,0.03 440.35,194.65,0.05 441.19,194.07,0.08 441.79,193.26,0.10 442.15,192.21,0.12"/>
    </edge>
    <edge id=":1135_0" function="internal">
        <lane id=":1135_0_0" index="0" disallow="all" speed="1.39" length="38.50" width="2.50" shape="516.01,286.69 515.07,248.20">
            <param key="origId" value="1165_-3"/>
        </lane>
    </edge>
    <edge id=":1135_1" function="internal">
        <lane id=":1135_1_0" index="0" disallow="pedestrian tram rail_urban rail rail_electric rail_fast ship container cable_car subway aircraft wheelchair scooter drone" speed="9.03" length="5.73" width="3.50" shape="519.01,286.62 518.25,281.32 518.07,280.99">
            <param key="origId" value="1158_-1"/>
        </lane>
    </edge>
    <edge id=":1135_2" function="internal">
        <lane id=":1135_2_0" index="0" disallow="pedestrian tram rail_urban rail rail_electric rail_fast ship container cable_car subway aircraft wheelchair scooter drone" speed="13.89" length="38.50" width="3.50" shape="519.01,286.62 518.07,248.13">
            <param key="origId" value="1165_-2"/>
        </lane>
    </edge>
    <edge id=":1135_3" function="internal">
        <lane id=":1135_3_0" index="0" disallow="pedestrian tram rail_urban rail rail_electric rail_fast ship container cable_car subway aircraft wheelchair scooter drone" speed="10.26" length="6.78" width="3.50" shape="522.51,286.53 521.51,279.83">
            <param key="origId" value="1156_-1"/>
        </lane>
    </edge>
    <edge id=":1135_4" function="internal">
        <lane id=":1135_4_0" index="0" disallow="pedestrian tram rail_urban rail rail_electric rail_fast ship container cable_car subway aircraft wheelchair scooter drone" speed="13.89" length="38.50" width="3.50" shape="522.51,286.53 521.57,248.04">
            <param key="origId" value="1165_-1"/>
        </lane>
    </edge>
    <edge id=":1135_12" function="internal">
        <lane id=":1135_12_0" index="0" disallow="pedestrian tram rail_urban rail rail_electric rail_fast ship container cable_car subway aircraft wheelchair scooter drone" speed="9.03" length="12.37" width="3.50" shape="518.07,280.99 516.24,277.55 513.00,275.32 508.51,274.61">
            <param key="origId" value="1158_-1"/>
        </lane>
    </edge>
    <edge id=":1135_13" function="internal">
        <lane id=":1135_13_0" index="0" disallow="pedestrian tram rail_urban rail rail_electric rail_fast ship container cable_car subway aircraft wheelchair scooter drone" speed="10.26" length="16.91" width="3.50" shape="521.51,279.83 521.49,279.72 518.81,274.88 514.47,272.01 508.47,271.11">
            <param key="origId" value="1156_-1"/>
        </lane>
    </edge>
    <edge id=":1135_5" function="internal">
        <lane id=":1135_5_0" index="0" disallow="pedestrian" speed="13.89" length="38.50" width="2.00" shape="537.95,247.65 538.89,286.13">
            <param key="origId" value="1166_6"/>
        </lane>
        <lane id=":1135_5_1" index="1" disallow="all" speed="1.39" length="38.50" width="0.63" shape="536.63,247.68 537.57,286.17">
            <param key="origId" value="1166_5"/>
        </lane>