<?xml version="1.0" encoding="UTF-8"?>

<!-- generated on 2026-04-21 12:28:19.861179 by Eclipse SUMO randomTrips.py v1.26.0.post1158
<configuration>
    <net-file value="/home/ekene/Projects/trafix/sumo/map.net.xml"/>
    <output-trip-file value="/home/ekene/Projects/trafix/sumo/training_demand.rou.xml"/>
    <fringe-factor value="10"/>
    <seed value="74365"/>
    <period value="1.04"/>
</configuration>
-->

<routes xmlns:xsi="http://www.w3.org/2001/XMLSchema-instance" xsi:noNamespaceSchemaLocation="http://sumo.dlr.de/xsd/routes_file.xsd">
    <trip id="0" depart="0.00" from="-E1" to="E9"/>
    <trip id="1" depart="1.04" from="-E9" to="E8"/>
    <trip id="2" depart="2.08" from="-E7" to="E9"/>
    <trip id="3" depart="3.12" from="-E13" to="E11"/>
    <trip id="4" depart="4.16" from="-E7" to="E4"/>
    <trip id="5" depart="5.20" from="-E11" to="E9"/>
    <trip id="6" depart="6.24" from="-E4" to="E8"/>
    <trip id="7" depart="7.28" from="-E9" to="E12"/>
    <trip id="8" depart="8.32" from="-E13" to="E7"/>
    <trip id="9" depart="9.36" from="-E12" to="E7"/>
    <trip id="10" depart="10.40" from="E3" to="-E1"/>
    <trip id="11" depart="11.44" from="-E8" to="E13"/>
    <trip id="12" depart="12.48" from="-E12" to="-E2"/>
    <trip id="13" depart="13.52" from="-E7" to="E8"/>
    <trip id="14" depart="14.56" from="-E7" to="E6"/>
    <trip id="15" depart="15.60" from="-E6" to="E13"/>
    <trip id="16" depart="16.64" from="-E12" to="E12"/>
    <trip id="17" depart="17.68" from="-E8" to="E6"/>
    <trip id="18" depart="18.72" from="-E11" to="E7"/>
    <trip id="19" depart="19.76" from="E3" to="E14"/>
    <trip id="20" depart="20.80" from="-E7" to="E8"/>
    <trip id="21" depart="21.84" from="-E6" to="E7"/>
    <trip id="22" depart="22.88" from="E3" to="E11"/>
    <trip id="23" depart="23.92" from="-E8" to="E7"/>
    <trip id="24" depart="24.96" from="-E13" to="E12"/>
    <trip id="25" depart="26.00" from="-E9" to="E12"/>
    <trip id="26" depart="27.04" from="-E6" to="E13"/>
    <trip id="27" depart="28.08" from="-E9" to="E12"/>
    <trip id="28" depart="29.12" from="-E7" to="E14"/>
    <trip id="29" depart="30.16" from="-E5" to="E11"/>
    <trip id="30" depart="31.20" from="-E13" to="E10"/>
    <trip id="31" depart="32.24" from="-E11" to="E7"/>
    <trip id="32" depart="33.28" from="-E14" to="E7"/>
    <trip id="33" depart="34.32" from="-E12" to="E11"/>
    <trip id="34" depart="35.36" from="-E14" to="E8"/>
    <trip id="35" depart="36.40" from="-E7" to="E4"/>
    <trip id="36" depart="37.44" from="-E6" to="E11"/>
    <trip id="37" depart="38.48" from="-E9" to="E7"/>
    <trip id="38" depart="39.52" from="-E8" to="E8"/>
    <trip id="39" depart="40.56" from="-E11" to="E12"/>
    <trip id="40" depart="41.60" from="-E12" to="E7"/>
    <trip id="41" depart="42.64" from="-E9" to="E11"/>
    <trip id="42" depart="43.68" from="-E3" to="E6"/>
    <trip id="43" depart="44.72" from="-E5" to="E7"/>
    <trip id="44" depart="45.76" from="-E12" to="E10"/>
    <trip id="45" depart="46.80" from="-E9" to="E12"/>
    <trip id="46" depart="47.84" from="-E14" to="E3"/>
    <trip id="47" depart="48.88" from="-E14" to="E14"/>
    <trip id="48" depart="49.92" from="-E8" to="E8"/>
    <trip id="49" depart="50.96" from="-E14" to="E8"/>
    <trip id="50" depart="52.00" from="-E9" to="E13"/>
    <trip id="51" depart="53.04" from="-E13" to="E7"/>
    <trip id="52" depart="54.08" from="-E12" to="E6"/>
    <trip id="53" depart="55.12" from="-E12" to="E13"/>
    <trip id="54" depart="56.16" from="-E8" to="E5"/>
    <trip id="55" depart="57.20" from="-E9" to="E11"/>
    <trip id="56" depart="58.24" from="-E12" to="E8"/>
    <trip id="57" depart="59.28" from="-E10" to="E14"/>
    <trip id="58" depart="60.32" from="-E14" to="E7"/>
    <trip id="59" depart="61.36" from="-E9" to="E2"/>
    <trip id="60" depart="62.40" from="-E9" to="E5"/>
    <trip id="61" depart="63.44" from="-E0" to="E8"/>
    <trip id="62" depart="64.48" from="-E13" to="E11"/>
    <trip id="63" depart="65.52" from="-E7" to="-E2"/>
    <trip id="64" depart="66.56" from="-E11" to="E11"/>
    <trip id="65" depart="67.60" from="-E10" to="E5"/>
    <trip id="66" depart="68.64" from="-E5" to="E9"/>
    <trip id="67" depart="69.68" from="-E10" to="E10"/>
    <trip id="68" depart="70.72" from="-E10" to="E11"/>
    <trip id="69" depart="71.76" from="-E14" to="E13"/>
    <trip id="70" depart="72.80" from="-E11" to="E10"/>
    <trip id="71" depart="73.84" from="-E10" to="E6"/>
    <trip id="72" depart="74.88" from="-E6" to="E8"/>
    <trip id="73" depart="75.92" from="-E14" to="E12"/>
    <trip id="74" depart="76.96" from="-E13" to="E6"/>
    <trip id="75" depart="78.00" from="-E5" to="E8"/>
    <trip id="76" depart="79.04" from="-E0" to="E8"/>
    <trip id="77" depart="80.08" from="-E12" to="E7"/>
    <trip id="78" depart="81.12" from="-E9" to="E10"/>
    <trip id="79" depart="82.16" from="-E10" to="E10"/>
    <trip id="80" depart="83.20" from="-E9" to="E6"/>
    <trip id="81" depart="84.24" from="-E10" to="E13"/>
    <trip id="82" depart="85.28" from="-E7" to="E9"/>
    <trip id="83" depart="86.32" from="-E8" to="-E3"/>
    <trip id="84" depart="87.36" from="-E8" to="E8"/>
    <trip id="85" depart="88.40" from="-E6" to="E11"/>
    <trip id="86" depart="89.44" from="-E10" to="E5"/>
    <trip id="87" depart="90.48" from="-E2" to="E12"/>
    <trip id="88" depart="91.52" from="-E9" to="E7"/>
    <trip id="89" depart="92.56" from="-E11" to="E12"/>
    <trip id="90" depart="93.60" from="-E7" to="E6"/>
    <trip id="91" depart="94.64" from="-E10" to="E11"/>
    <trip id="92" depart="95.68" from="-E14" to="E14"/>
    <trip id="93" depart="96.72" from="-E9" to="E7"/>
    <trip id="94" depart="97.76" from="-E6" to="E8"/>
    <trip id="95" depart="98.80" from="-E7" to="E10"/>
    <trip id="96" depart="99.84" from="-E6" to="E8"/>
    <trip id="97" depart="100.88" from="-E2" to="E6"/>
    <trip id="98" depart="101.92" from="-E6" to="E13"/>
    <trip id="99" depart="102.96" from="-E8" to="E7"/>
    <trip id="100" depart="104.00" from="-E12" to="E8"/>
    <trip id="101" depart="105.04" from="-E7" to="E12"/>
    <trip id="102" depart="106.08" from="-E12" to="E6"/>
    <trip id="103" depart="107.12" from="-E9" to="E7"/>
    <trip id="104" depart="108.16" from="-E12" to="E14"/>
    <trip id="105" depart="109.20" from="-E12" to="E14"/>
    <trip id="106" depart="110.24" from="-E13" to="E2"/>
    <trip id="107" depart="111.28" from="-E10" to="E14"/>
    <trip id="108" depart="112.32" from="-E13" to="E9"/>
    <trip id="109" depart="113.36" from="-E12" to="E8"/>
    <trip id="110" depart="114.40" from="-E10" to="E5"/>
    <trip id="111" depart="115.44" from="-E5" to="E9"/>
    <trip id="112" depart="116.48" from="-E12" to="E7"/>
    <trip id="113" depart="117.52" from="-E13" to="E5"/>
    <trip id="114" depart="118.56" from="-E13" to="E11"/>
    <trip id="115" depart="119.60" from="-E12" to="E7"/>
    <trip id="116" depart="120.64" from="-E12" to="E9"/>
    <trip id="117" depart="121.68" from="-E3" to="E8"/>
    <trip id="118" depart="122.72" from="-E11" to="E13"/>
    <trip id="119" depart="123.76" from="-E14" to="E12"/>
    <trip id="120" depart="124.80" from="-E8" to="E14"/>
    <trip id="121" depart="125.84" from="E3" to="E7"/>
    <trip id="122" depart="126.88" from="-E0" to="E14"/>
    <trip id="123" depart="127.92" from="-E8" to="E14"/>
    <trip id="124" depart="128.96" from="-E12" to="-E3"/>
    <trip id="125" depart="130.00" from="-E12" to="E8"/>
    <trip id="126" depart="131.04" from="-E8" to="E8"/>
    <trip id="127" depart="132.08" from="-E6" to="E7"/>
    <trip id="128" depart="133.12" from="-E14" to="E12"/>
    <trip id="129" depart="134.16" from="-E12" to="E12"/>
    <trip id="130" depart="135.20" from="-E6" to="E12"/>
    <trip id="131" depart="136.24" from="-E11" to="E10"/>
    <trip id="132" depart="137.28" from="-E12" to="E7"/>
    <trip id="133" depart="138.32" from="-E6" to="E5"/>
    <trip id="134" depart="139.36" from="-E8" to="E7"/>
    <trip id="135" depart="140.40" from="-E2" to="E11"/>
    <trip id="136" depart="141.44" from="-E10" to="E10"/>
    <trip id="137" depart="142.48" from="-E12" to="E14"/>
    <trip id="138" depart="143.52" from="-E12" to="E5"/>
    <trip id="139" depart="144.56" from="-E7" to="E12"/>
    <trip id="140" depart="145.60" from="-E13" to="E6"/>
    <trip id="141" depart="146.64" from="-E11" to="-E3"/>
    <trip id="142" depart="147.68" from="-E9" to="-E0"/>
    <trip id="143" depart="148.72" from="-E4" to="E7"/>
    <trip id="144" depart="149.76" from="-E12" to="E7"/>
    <trip id="145" depart="150.80" from="-E3" to="E8"/>
    <trip id="146" depart="151.84" from="-E7" to="E13"/>
    <trip id="147" depart="152.88" from="-E8" to="E9"/>
    <trip id="148" depart="153.92" from="-E11" to="E12"/>
    <trip id="149" depart="154.96" from="-E6" to="E7"/>
    <trip id="150" depart="156.00" from="-E14" to="E7"/>
    <trip id="151" depart="157.04" from="-E5" to="E9"/>
    <trip id="152" depart="158.08" from="E2" to="E14"/>
    <trip id="153" depart="159.12" from="E0" to="E6"/>
    <trip id="154" depart="160.16" from="-E5" to="E13"/>
    <trip id="155" depart="161.20" from="-E12" to="E13"/>
    <trip id="156" depart="162.24" from="-E14" to="E9"/>
    <trip id="157" depart="163.28" from="-E5" to="E6"/>
    <trip id="158" depart="164.32" from="-E13" to="E11"/>
    <trip id="159" depart="165.36" from="-E9" to="E6"/>
    <trip id="160" depart="166.40" from="-E11" to="E13"/>
    <trip id="161" depart="167.44" from="-E5" to="E7"/>
    <trip id="162" depart="168.48" from="-E13" to="E14"/>
    <trip id="163" depart="169.52" from="-E12" to="E10"/>
    <trip id="164" depart="170.56" from="E2" to="E11"/>
    <trip id="165" depart="171.60" from="-E14" to="E11"/>
    <trip id="166" depart="172.64" from="-E4" to="E11"/>
    <trip id="167" depart="173.68" from="-E5" to="E11"/>
    <trip id="168" depart="174.72" from="-E12" to="E9"/>
    <trip id="169" depart="175.76" from="-E13" to="E6"/>
    <trip id="170" depart="176.80" from="-E9" to="E7"/>
    <trip id="171" depart="177.84" from="-E11" to="-E2"/>
    <trip id="172" depart="178.88" from="-E7" to="E11"/>
    <trip id="173" depart="179.92" from="-E8" to="E14"/>
    <trip id="174" depart="180.96" from="-E10" to="E11"/>
    <trip id="175" depart="182.00" from="E3" to="E10"/>
    <trip id="176" depart="183.04" from="-E12" to="E14"/>
    <trip id="177" depart="184.08" from="-E13" to="E7"/>
    <trip id="178" depart="185.12" from="-E6" to="E8"/>
    <trip id="179" depart="186.16" from="-E5" to="E8"/>
    <trip id="180" depart="187.20" from="-E8" to="E12"/>
    <trip id="181" depart="188.24" from="-E9" to="E5"/>
    <trip id="182" depart="189.28" from="-E1" to="E12"/>
    <trip id="183" depart="190.32" from="-E11" to="E11"/>
    <trip id="184" depart="191.36" from="-E6" to="E13"/>
    <trip id="185" depart="192.40" from="-E6" to="E11"/>
    <trip id="186" depart="193.44" from="-E9" to="E7"/>
    <trip id="187" depart="194.48" from="-E12" to="E12"/>
    <trip id="188" depart="195.52" from="-E7" to="E7"/>
    <trip id="189" depart="196.56" from="-E5" to="E9"/>
    <trip id="190" depart="197.60" from="-E9" to="E13"/>
    <trip id="191" depart="198.64" from="-E7" to="E14"/>
    <trip id="192" depart="199.68" from="E3" to="E14"/>
    <trip id="193" depart="200.72" from="-E5" to="E14"/>
    <trip id="194" depart="201.76" from="-E11" to="E14"/>
    <trip id="195" depart="202.80" from="-E5" to="E10"/>
    <trip id="196" depart="203.84" from="-E13" to="E13"/>
    <trip id="197" depart="204.88" from="-E14" to="E10"/>
    <trip id="198" depart="205.92" from="-E14" to="-E0"/>
    <trip id="199" depart="206.96" from="-E9" to="E10"/>
    <trip id="200" depart="208.00" from="-E7" to="E8"/>
    <trip id="201" depart="209.04" from="-E12" to="E10"/>
    <trip id="202" depart="210.08" from="-E13" to="E14"/>
    <trip id="203" depart="211.12" from="-E8" to="E8"/>
    <trip id="204" depart="212.16" from="-E7" to="E12"/>
    <trip id="205" depart="213.20" from="-E14" to="E2"/>
    <trip id="206" depart="214.24" from="-E10" to="E6"/>
    <trip id="207" depart="215.28" from="-E10" to="E12"/>
    <trip id="208" depart="216.32" from="-E14" to="E7"/>
    <trip id="209" depart="217.36" from="-E14" to="E14"/>
    <trip id="210" depart="218.40" from="-E0" to="E12"/>
    <trip id="211" depart="219.44" from="-E6" to="E10"/>
    <trip id="212" depart="220.48" from="-E6" to="E12"/>
    <trip id="213" depart="221.52" from="E3" to="E14"/>
    <trip id="214" depart="222.56" from="-E12" to="E0"/>
    <trip id="215" depart="223.60" from="-E12" to="E12"/>
    <trip id="216" depart="224.64" from="-E8" to="E3"/>
    <trip id="217" depart="225.68" from="-E7" to="E11"/>
    <trip id="218" depart="226.72" from="-E6" to="E11"/>
    <trip id="219" depart="227.76" from="-E8" to="E7"/>
    <trip id="220" depart="228.80" from="-E12" to="E10"/>
    <trip id="221" depart="229.84" from="-E8" to="E13"/>
    <trip id="222" depart="230.88" from="-E11" to="E12"/>
    <trip id="223" depart="231.92" from="-E14" to="E7"/>
    <trip id="224" depart="232.96" from="-E7" to="E13"/>
    <trip id="225" depart="234.00" from="-E9" to="E9"/>
    <trip id="226" depart="235.04" from="-E6" to="E7"/>
    <trip id="227" depart="236.08" from="-E14" to="E6"/>
    <trip id="228" depart="237.12" from="-E6" to="E13"/>
    <trip id="229" depart="238.16" from="-E12" to="E12"/>
    <trip id="230" depart="239.20" from="-E5" to="E14"/>
    <trip id="231" depart="240.24" from="-E6" to="E5"/>
    <trip id="232" depart="241.28" from="-E11" to="E7"/>
    <trip id="233" depart="242.32" from="-E13" to="-E3"/>
    <trip id="234" depart="243.36" from="-E14" to="E6"/>
    <trip id="235" depart="244.40" from="-E5" to="E10"/>
    <trip id="236" depart="245.44" from="-E13" to="E14"/>
    <trip id="237" depart="246.48" from="-E12" to="E7"/>
    <trip id="238" depart="247.52" from="-E14" to="E14"/>
    <trip id="239" depart="248.56" from="-E7" to="E11"/>
    <trip id="240" depart="249.60" from="-E13" to="E10"/>
    <trip id="241" depart="250.64" from="-E7" to="E5"/>
    <trip id="242" depart="251.68" from="-E13" to="E7"/>
    <trip id="243" depart="252.72" from="-E12" to="E13"/>
    <trip id="244" depart="253.76" from="-E9" to="E8"/>
    <trip id="245" depart="254.80" from="-E6" to="E9"/>
    <trip id="246" depart="255.84" from="-E9" to="E14"/>
    <trip id="247" depart="256.88" from="-E12" to="E12"/>
    <trip id="248" depart="257.92" from="-E13" to="E12"/>
    <trip id="249" depart="258.96" from="-E9" to="E13"/>
    <trip id="250" depart="260.00" from="-E13" to="E6"/>
    <trip id="251" depart="261.04" from="-E10" to="E13"/>
    <trip id="252" depart="262.08" from="-E10" to="E14"/>
    <trip id="253" depart="263.12" from="-E13" to="E10"/>
    <trip id="254" depart="264.16" from="-E12" to="E6"/>
    <trip id="255" depart="265.20" from="-E6" to="E4"/>
    <trip id="256" depart="266.24" from="-E7" to="E14"/>
    <trip id="257" depart="267.28" from="-E8" to="E11"/>
    <trip id="258" depart="268.32" from="-E13" to="E13"/>
    <trip id="259" depart="269.36" from="-E13" to="E13"/>
    <trip id="260" depart="270.40" from="-E14" to="E14"/>
    <trip id="261" depart="271.44" from="-E13" to="E13"/>
    <trip id="262" depart="272.48" from="-E11" to="E11"/>
    <trip id="263" depart="273.52" from="-E6" to="E7"/>
    <trip id="264" depart="274.56" from="-E9" to="E6"/>
    <trip id="265" depart="275.60" from="-E13" to="E11"/>
    <trip id="266" depart="276.64" from="-E0" to="E8"/>
    <trip id="267" depart="277.68" from="-E1" to="E3"/>
    <trip id="268" depart="278.72" from="-E14" to="E9"/>
    <trip id="269" depart="279.76" from="-E14" to="E7"/>
    <trip id="270" depart="280.80" from="-E10" to="E9"/>
    <trip id="271" depart="281.84" from="-E7" to="E11"/>
    <trip id="272" depart="282.88" from="-E12" to="E12"/>
    <trip id="273" depart="283.92" from="-E14" to="E5"/>
    <trip id="274" depart="284.96" from="-E12" to="E14"/>
    <trip id="275" depart="286.00" from="-E7" to="E7"/>
    <trip id="276" depart="287.04" from="-E6" to="E10"/>
    <trip id="277" depart="288.08" from="-E14" to="E13"/>
    <trip id="278" depart="289.12" from="-E5" to="E10"/>
    <trip id="279" depart="290.16" from="-E12" to="E12"/>
    <trip id="280" depart="291.20" from="-E8" to="E5"/>
    <trip id="281" depart="292.24" from="-E5" to="E11"/>
    <trip id="282" depart="293.28" from="-E13" to="E8"/>
    <trip id="283" depart="294.32" from="-E12" to="E5"/>
    <trip id="284" depart="295.36" from="-E12" to="E9"/>
    <trip id="285" depart="296.40" from="-E4" to="E12"/>
    <trip id="286" depart="297.44" from="-E14" to="E7"/>
    <trip id="287" depart="298.48" from="-E8" to="E14"/>
    <trip id="288" depart="299.52" from="-E9" to="E5"/>
    <trip id="289" depart="300.56" from="-E13" to="E10"/>
    <trip id="290" depart="301.60" from="-E5" to="E8"/>
    <trip id="291" depart="302.64" from="-E11" to="E14"/>
    <trip id="292" depart="303.68" from="-E6" to="E7"/>
    <trip id="293" depart="304.72" from="-E13" to="E14"/>
    <trip id="294" depart="305.76" from="-E12" to="E9"/>
    <trip id="295" depart="306.80" from="-E5" to="E12"/>
    <trip id="296" depart="307.84" from="-E11" to="E6"/>
    <trip id="297" depart="308.88" from="-E6" to="E5"/>
    <trip id="298" depart="309.92" from="-E13" to="E7"/>
    <trip id="299" depart="310.96" from="-E5" to="E9"/>
    <trip id="300" depart="312.00" from="-E9" to="E6"/>
    <trip id="301" depart="313.04" from="-E6" to="E7"/>
    <trip id="302" depart="314.08" from="E4" to="E14"/>
    <trip id="303" depart="315.12" from="-E12" to="E6"/>
    <trip id="304" depart="316.16" from="-E12" to="-E2"/>
    <trip id="305" depart="317.20" from="-E11" to="E13"/>
    <trip id="306" depart="318.24" from="-E7" to="E5"/>
    <trip id="307" depart="319.28" from="-E13" to="E8"/>
    <trip id="308" depart="320.32" from="-E2" to="E12"/>
    <trip id="309" depart="321.36" from="-E5" to="E6"/>
    <trip id="310" depart="322.40" from="-E7" to="E11"/>
    <trip id="311" depart="323.44" from="-E9" to="E6"/>
    <trip id="312" depart="324.48" from="-E10" to="E7"/>
    <trip id="313" depart="325.52" from="-E8" to="E9"/>
    <trip id="314" depart="326.56" from="-E12" to="E5"/>
    <trip id="315" depart="327.60" from="-E1" to="E6"/>
    <trip id="316" depart="328.64" from="-E12" to="E5"/>
    <trip id="317" depart="329.68" from="-E13" to="E13"/>
    <trip id="318" depart="330.72" from="-E12" to="E6"/>
    <trip id="319" depart="331.76" from="-E14" to="E10"/>
    <trip id="320" depart="332.80" from="-E8" to="E13"/>
    <trip id="321" depart="333.84" from="-E5" to="E9"/>
    <trip id="322" depart="334.88" from="-E12" to="E14"/>
    <trip id="323" depart="335.92" from="-E6" to="E12"/>
    <trip id="324" depart="336.96" from="-E11" to="E12"/>
    <trip id="325" depart="338.00" from="-E7" to="E9"/>
    <trip id="326" depart="339.04" from="-E11" to="E6"/>
    <trip id="327" depart="340.08" from="-E6" to="E6"/>
    <trip id="328" depart="341.12" from="-E14" to="E8"/>
    <trip id="329" depart="342.16" from="-E9" to="E7"/>
    <trip id="330" depart="343.20" from="-E9" to="E9"/>
    <trip id="331" depart="344.24" from="E3" to="E12"/>
    <trip id="332" depart="345.28" from="-E14" to="E14"/>
    <trip id="333" depart="346.32" from="-E6" to="-E1"/>
    <trip id="334" depart="347.36" from="-E7" to="E5"/>
    <trip id="335" depart="348.40" from="-E8" to="E12"/>
    <trip id="336" depart="349.44" from="-E13" to="E14"/>
    <trip id="337" depart="350.48" from="-E5" to="E11"/>
    <trip id="338" depart="351.52" from="-E13" to="E6"/>
    <trip id="339" depart="352.56" from="-E6" to="E12"/>
    <trip id="340" depart="353.60" from="-E6" to="E9"/>
    <trip id="341" depart="354.64" from="-E8" to="E13"/>
    <trip id="342" depart="355.68" from="-E11" to="E7"/>
    <trip id="343" depart="356.72" from="-E10" to="E9"/>
    <trip id="344" depart="357.76" from="-E9" to="E11"/>
    <trip id="345" depart="358.80" from="-E10" to="E6"/>
    <trip id="346" depart="359.84" from="E4" to="E4"/>
    <trip id="347" depart="360.88" from="-E1" to="E11"/>
    <trip id="348" depart="361.92" from="-E13" to="E13"/>
    <trip id="349" depart="362.96" from="-E7" to="E6"/>
    <trip id="350" depart="364.00" from="-E11" to="-E3"/>
    <trip id="351" depart="365.04" from="-E9" to="E11"/>
    <trip id="352" depart="366.08" from="-E7" to="E5"/>
    <trip id="353" depart="367.12" from="-E13" to="E5"/>
    <trip id="354" depart="368.16" from="-E7" to="E6"/>
    <trip id="355" depart="369.20" from="-E13" to="E13"/>
    <trip id="356" depart="370.24" from="-E2" to="E12"/>
    <trip id="357" depart="371.28" from="-E7" to="E8"/>
    <trip id="358" depart="372.32" from="-E0" to="E7"/>
    <trip id="359" depart="373.36" from="-E7" to="E6"/>
    <trip id="360" depart="374.40" from="-E10" to="E12"/>
    <trip id="361" depart="375.44" from="-E2" to="E12"/>
    <trip id="362" depart="376.48" from="-E11" to="E7"/>
    <trip id="363" depart="377.52" from="-E13" to="E13"/>
    <trip id="364" depart="378.56" from="-E8" to="E7"/>
    <trip id="365" depart="379.60" from="-E6" to="E4"/>
    <trip id="366" depart="380.64" from="-E8" to="E12"/>
    <trip id="367" depart="381.68" from="-E10" to="E8"/>
    <trip id="368" depart="382.72" from="-E7" to="E12"/>
    <trip id="369" depart="383.76" from="-E14" to="-E2"/>
    <trip id="370" depart="384.80" from="-E7" to="E13"/>
    <trip id="371" depart="385.84" from="-E7" to="E7"/>
    <trip id="372" depart="386.88" from="-E14" to="E12"/>
    <trip id="373" depart="387.92" from="-E13" to="E11"/>
    <trip id="374" depart="388.96" from="-E5" to="E9"/>
    <trip id="375" depart="390.00" from="-E13" to="E10"/>
    <trip id="376" depart="391.04" from="E1" to="E8"/>
    <trip id="377" depart="392.08" from="-E0" to="E8"/>
    <trip id="378" depart="393.12" from="-E8" to="E12"/>
    <trip id="379" depart="394.16" from="-E5" to="E6"/>
    <trip id="380" depart="395.20" from="-E7" to="E14"/>
    <trip id="381" depart="396.24" from="-E13" to="E9"/>
    <trip id="382" depart="397.28" from="-E6" to="E12"/>
    <trip id="383" depart="398.32" from="-E14" to="E6"/>
    <trip id="384" depart="399.36" from="-E8" to="E13"/>
    <trip id="385" depart="400.40" from="-E8" to="E5"/>
    <trip id="386" depart="401.44" from="-E9" to="E5"/>
    <trip id="387" depart="402.48" from="-E12" to="E5"/>
    <trip id="388" depart="403.52" from="-E14" to="E10"/>
    <trip id="389" depart="404.56" from="-E8" to="E6"/>
    <trip id="390" depart="405.60" from="-E6" to="E9"/>
    <trip id="391" depart="406.64" from="-E6" to="E12"/>
    <trip id="392" depart="407.68" from="-E11" to="E14"/>
    <trip id="393" depart="408.72" from="-E12" to="E12"/>
    <trip id="394" depart="409.76" from="-E7" to="E10"/>
    <trip id="395" depart="410.80" from="E3" to="E7"/>
    <trip id="396" depart="411.84" from="-E11" to="E6"/>
    <trip id="397" depart="412.88" from="-E7" to="E6"/>
    <trip id="398" depart="413.92" from="-E2" to="E10"/>
    <trip id="399" depart="414.96" from="-E13" to="E12"/>
    <trip id="400" depart="416.00" from="-E14" to="E6"/>
    <trip id="401" depart="417.04" from="E1" to="E14"/>
    <trip id="402" depart="418.08" from="-E6" to="E12"/>
    <trip id="403" depart="419.12" from="-E5" to="-E3"/>
    <trip id="404" depart="420.16" from="-E10" to="E6"/>
    <trip id="405" depart="421.20" from="-E6" to="E13"/>
    <trip id="406" depart="422.24" from="-E14" to="E8"/>
    <trip id="407" depart="423.28" from="-E6" to="E1"/>
    <trip id="408" depart="424.32" from="-E6" to="E7"/>
    <trip id="409" depart="425.36" from="E3" to="E5"/>
    <trip id="410" depart="426.40" from="-E12" to="E8"/>
    <trip id="411" depart="427.44" from="-E5" to="E12"/>
    <trip id="412" depart="428.48" from="-E7" to="E7"/>
    <trip id="413" depart="429.52" from="-E8" to="E14"/>
    <trip id="414" depart="430.56" from="E2" to="E8"/>
    <trip id="415" depart="431.60" from="-E11" to="E12"/>
    <trip id="416" depart="432.64" from="-E5" to="E5"/>
    <trip id="417" depart="433.68" from="-E13" to="E3"/>
    <trip id="418" depart="434.72" from="-E11" to="E11"/>
    <trip id="419" depart="435.76" from="-E12" to="E10"/>
    <trip id="420" depart="436.80" from="-E14" to="E6"/>
    <trip id="421" depart="437.84" from="-E5" to="E5"/>
    <trip id="422" depart="438.88" from="-E1" to="E9"/>
    <trip id="423" depart="439.92" from="-E5" to="E8"/>
    <trip id="424" depart="440.96" from="-E9" to="E7"/>
    <trip id="425" depart="442.00" from="-E6" to="E7"/>
    <trip id="426" depart="443.04" from="-E6" to="E11"/>
    <trip id="427" depart="444.08" from="-E12" to="E6"/>
    <trip id="428" depart="445.12" from="-E9" to="E11"/>
    <trip id="429" depart="446.16" from="-E6" to="E8"/>
    <trip id="430" depart="447.20" from="-E13" to="E9"/>
    <trip id="431" depart="448.24" from="-E14" to="-E4"/>
    <trip id="432" depart="449.28" from="-E9" to="E14"/>
    <trip id="433" depart="450.32" from="-E11" to="E8"/>
    <trip id="434" depart="451.36" from="-E11" to="E8"/>
    <trip id="435" depart="452.40" from="-E12" to="E6"/>
    <trip id="436" depart="453.44" from="-E7" to="E10"/>
    <trip id="437" depart="454.48" from="-E8" to="E10"/>
    <trip id="438" depart="455.52" from="-E10" to="E11"/>
    <trip id="439" depart="456.56" from="-E5" to="E13"/>
    <trip id="440" depart="457.60" from="-E7" to="E5"/>
    <trip id="441" depart="458.64" from="-E9" to="E13"/>
    <trip id="442" depart="459.68" from="-E7" to="E14"/>
    <trip id="443" depart="460.72" from="-E11" to="E10"/>
    <trip id="444" depart="461.76" from="-E7" to="E14"/>
    <trip id="445" depart="462.80" from="-E8" to="E6"/>
    <trip id="446" depart="463.84" from="-E10" to="E13"/>
    <trip id="447" depart="464.88" from="-E6" to="E6"/>
    <trip id="448" depart="465.92" from="-E5" to="E12"/>
    <trip id="449" depart="466.96" from="-E6" to="E8"/>
    <trip id="450" depart="468.00" from="-E13" to="E10"/>
    <trip id="451" depart="469.04" from="-E10" to="E13"/>
    <trip id="452" depart="470.08" from="-E7" to="E5"/>
    <trip id="453" depart="471.12" from="-E14" to="E12"/>
    <trip id="454" depart="472.16" from="E3" to="E8"/>
    <trip id="455" depart="473.20" from="-E12" to="E13"/>
    <trip id="456" depart="474.24" from="-E8" to="E12"/>
    <trip id="457" depart="475.28" from="-E13" to="E10"/>
    <trip id="458" depart="476.32" from="-E13" to="E6"/>
    <trip id="459" depart="477.36" from="-E6" to="E7"/>
    <trip id="460" depart="478.40" from="-E7" to="E11"/>
    <trip id="461" depart="479.44" from="-E5" to="E14"/>
    <trip id="462" depart="480.48" from="-E8" to="E12"/>
    <trip id="463" depart="481.52" from="-E13" to="E10"/>
    <trip id="464" depart="482.56" from="-E9" to="-E2"/>
    <trip id="465" depart="483.60" from="-E8" to="E8"/>
    <trip id="466" depart="484.64" from="-E5" to="E14"/>
    <trip id="467" depart="485.68" from="-E12" to="E10"/>
    <trip id="468" depart="486.72" from="E3" to="E7"/>
    <trip id="469" depart="487.76" from="-E6" to="E12"/>
    <trip id="470" depart="488.80" from="-E11" to="E6"/>
    <trip id="471" depart="489.84" from="E3" to="E6"/>
    <trip id="472" depart="490.88" from="-E12" to="E9"/>
    <trip id="473" depart="491.92" from="-E10" to="E6"/>
    <trip id="474" depart="492.96" from="-E7" to="E9"/>
    <trip id="475" depart="494.00" from="-E14" to="E8"/>
    <trip id="476" depart="495.04" from="-E12" to="E5"/>
    <trip id="477" depart="496.08" from="-E1" to="-E1"/>
    <trip id="478" depart="497.12" from="-E7" to="E8"/>
    <trip id="479" depart="498.16" from="-E6" to="E7"/>
    <trip id="480" depart="499.20" from="-E14" to="E13"/>
    <trip id="481" depart="500.24" from="E2" to="E8"/>
    <trip id="482" depart="501.28" from="-E13" to="E6"/>
    <trip id="483" depart="502.32" from="-E8" to="E6"/>
    <trip id="484" depart="503.36" from="-E6" to="E10"/>
    <trip id="485" depart="504.40" from="-E5" to="E11"/>
    <trip id="486" depart="505.44" from="-E14" to="E11"/>
    <trip id="487" depart="506.48" from="-E9" to="E14"/>
    <trip id="488" depart="507.52" from="-E6" to="E12"/>
    <trip id="489" depart="508.56" from="-E14" to="E3"/>
    <trip id="490" depart="509.60" from="-E13" to="E5"/>
    <trip id="491" depart="510.64" from="-E8" to="E9"/>
    <trip id="492" depart="511.68" from="-E5" to="E12"/>
    <trip id="493" depart="512.72" from="-E11" to="E1"/>
    <trip id="494" depart="513.76" from="-E7" to="E8"/>
    <trip id="495" depart="514.80" from="-E8" to="E6"/>
    <trip id="496" depart="515.84" from="E2" to="E12"/>
    <trip id="497" depart="516.88" from="-E8" to="E12"/>
    <trip id="498" depart="517.92" from="-E10" to="E6"/>
    <trip id="499" depart="518.96" from="-E11" to="E5"/>
    <trip id="500" depart="520.00" from="-E5" to="E5"/>
    <trip id="501" depart="521.04" from="-E14" to="E13"/>
    <trip id="502" depart="522.08" from="-E11" to="E9"/>
    <trip id="503" depart="523.12" from="-E10" to="E6"/>
    <trip id="504" depart="524.16" from="-E10" to="E9"/>
    <trip id="505" depart="525.20" from="-E14" to="E12"/>
    <trip id="506" depart="526.24" from="-E13" to="E12"/>
    <trip id="507" depart="527.28" from="-E5" to="E11"/>
    <trip id="508" depart="528.32" from="-E5" to="E14"/>
    <trip id="509" depart="529.36" from="-E14" to="E14"/>
    <trip id="510" depart="530.40" from="-E12" to="E8"/>
    <trip id="511" depart="531.44" from="-E12" to="E14"/>
    <trip id="512" depart="532.48" from="-E14" to="E11"/>
    <trip id="513" depart="533.52" from="-E8" to="E12"/>
    <trip id="514" depart="534.56" from="-E11" to="E13"/>
    <trip id="515" depart="535.60" from="-E7" to="E7"/>
    <trip id="516" depart="536.64" from="-E8" to="E5"/>
    <trip id="517" depart="537.68" from="-E7" to="E14"/>
    <trip id="518" depart="538.72" from="-E10" to="E12"/>
    <trip id="519" depart="539.76" from="-E8" to="-E1"/>
    <trip id="520" depart="540.80" from="-E11" to="E7"/>