<?xml version="1.0" encoding="UTF-8"?>

<!-- generated on 2026-04-16 13:02:55.769265 by Eclipse SUMO randomTrips.py v1_26_0+0000-fa7df22d7f1
<configuration>
    <net-file value="C:\Users\Furkan\Desktop\traficies\trafix\sumo\map.net.xml"/>
    <output-trip-file value="C:\Users\Furkan\Desktop\traficies\trafix\sumo\training_demand.rou.xml"/>
    <fringe-factor value="10"/>
    <seed value="14994"/>
    <period value="1.27"/>
</configuration>
-->

<routes xmlns:xsi="http://www.w3.org/2001/XMLSchema-instance" xsi:noNamespaceSchemaLocation="http://sumo.dlr.de/xsd/routes_file.xsd">
    <trip id="0" depart="0.00" from="-E13" to="E7"/>
    <trip id="1" depart="1.27" from="-E6" to="E8"/>
    <trip id="2" depart="2.54" from="-E0" to="E5"/>
    <trip id="3" depart="3.81" from="-E13" to="E5"/>
    <trip id="4" depart="5.08" from="-E6" to="E10"/>
    <trip id="5" depart="6.35" from="-E7" to="E13"/>
    <trip id="6" depart="7.62" from="-E13" to="E12"/>
    <trip id="7" depart="8.89" from="-E12" to="E14"/>
    <trip id="8" depart="10.16" from="-E5" to="E14"/>
    <trip id="9" depart="11.43" from="-E5" to="E5"/>
    <trip id="10" depart="12.70" from="-E9" to="E11"/>
    <trip id="11" depart="13.97" from="-E9" to="E12"/>
    <trip id="12" depart="15.24" from="-E11" to="E5"/>
    <trip id="13" depart="16.51" from="-E10" to="-E3"/>
    <trip id="14" depart="17.78" from="-E6" to="E5"/>
    <trip id="15" depart="19.05" from="-E5" to="E9"/>
    <trip id="16" depart="20.32" from="-E11" to="E12"/>
    <trip id="17" depart="21.59" from="-E7" to="E14"/>
    <trip id="18" depart="22.86" from="-E8" to="E8"/>
    <trip id="19" depart="24.13" from="-E10" to="E11"/>
    <trip id="20" depart="25.40" from="-E13" to="E5"/>
    <trip id="21" depart="26.67" from="-E13" to="E7"/>
    <trip id="22" depart="27.94" from="-E5" to="E12"/>
    <trip id="23" depart="29.21" from="-E6" to="E11"/>
    <trip id="24" depart="30.48" from="-E10" to="E11"/>
    <trip id="25" depart="31.75" from="-E11" to="E5"/>
    <trip id="26" depart="33.02" from="-E10" to="E6"/>
    <trip id="27" depart="34.29" from="-E13" to="E12"/>
    <trip id="28" depart="35.56" from="-E10" to="E9"/>
    <trip id="29" depart="36.83" from="-E9" to="E11"/>
    <trip id="30" depart="38.10" from="-E11" to="E6"/>
    <trip id="31" depart="39.37" from="-E12" to="E8"/>
    <trip id="32" depart="40.64" from="-E12" to="E7"/>
    <trip id="33" depart="41.91" from="-E12" to="E10"/>
    <trip id="34" depart="43.18" from="-E10" to="E10"/>
    <trip id="35" depart="44.45" from="-E8" to="E13"/>
    <trip id="36" depart="45.72" from="-E11" to="E8"/>
    <trip id="37" depart="46.99" from="-E8" to="E9"/>
    <trip id="38" depart="48.26" from="-E9" to="E12"/>
    <trip id="39" depart="49.53" from="-E12" to="E12"/>
    <trip id="40" depart="50.80" from="-E10" to="E10"/>
    <trip id="41" depart="52.07" from="-E11" to="E6"/>
    <trip id="42" depart="53.34" from="-E10" to="E9"/>
    <trip id="43" depart="54.61" from="-E8" to="E11"/>
    <trip id="44" depart="55.88" from="-E7" to="E14"/>
    <trip id="45" depart="57.15" from="-E10" to="E8"/>
    <trip id="46" depart="58.42" from="-E7" to="E12"/>
    <trip id="47" depart="59.69" from="-E11" to="E13"/>
    <trip id="48" depart="60.96" from="-E5" to="E13"/>
    <trip id="49" depart="62.23" from="E1" to="E11"/>
    <trip id="50" depart="63.50" from="-E12" to="E6"/>
    <trip id="51" depart="64.77" from="-E7" to="-E3"/>
    <trip id="52" depart="66.04" from="-E7" to="E9"/>
    <trip id="53" depart="67.31" from="-E9" to="E14"/>
    <trip id="54" depart="68.58" from="-E14" to="E8"/>
    <trip id="55" depart="69.85" from="-E12" to="E10"/>
    <trip id="56" depart="71.12" from="-E7" to="E7"/>
    <trip id="57" depart="72.39" from="-E8" to="E14"/>
    <trip id="58" depart="73.66" from="-E9" to="E11"/>
    <trip id="59" depart="74.93" from="-E2" to="E14"/>
    <trip id="60" depart="76.20" from="E2" to="E5"/>
    <trip id="61" depart="77.47" from="-E6" to="E8"/>
    <trip id="62" depart="78.74" from="-E6" to="E14"/>
    <trip id="63" depart="80.01" from="-E14" to="E9"/>
    <trip id="64" depart="81.28" from="-E7" to="E9"/>
    <trip id="65" depart="82.55" from="-E11" to="-E1"/>
    <trip id="66" depart="83.82" from="-E12" to="E13"/>
    <trip id="67" depart="85.09" from="-E10" to="E7"/>
    <trip id="68" depart="86.36" from="-E13" to="E5"/>
    <trip id="69" depart="87.63" from="-E13" to="E12"/>
    <trip id="70" depart="88.90" from="-E9" to="E11"/>
    <trip id="71" depart="90.17" from="-E12" to="E5"/>
    <trip id="72" depart="91.44" from="-E12" to="E5"/>
    <trip id="73" depart="92.71" from="-E11" to="E5"/>
    <trip id="74" depart="93.98" from="-E6" to="E14"/>
    <trip id="75" depart="95.25" from="-E14" to="E13"/>
    <trip id="76" depart="96.52" from="-E11" to="E5"/>
    <trip id="77" depart="97.79" from="-E10" to="E5"/>
    <trip id="78" depart="99.06" from="-E11" to="E12"/>
    <trip id="79" depart="100.33" from="-E7" to="E9"/>
    <trip id="80" depart="101.60" from="-E14" to="E9"/>
    <trip id="81" depart="102.87" from="-E2" to="E5"/>
    <trip id="82" depart="104.14" from="-E5" to="E14"/>
    <trip id="83" depart="105.41" from="-E9" to="E9"/>
    <trip id="84" depart="106.68" from="-E9" to="E9"/>
    <trip id="85" depart="107.95" from="-E5" to="E9"/>
    <trip id="86" depart="109.22" from="-E12" to="E9"/>
    <trip id="87" depart="110.49" from="-E3" to="E11"/>
    <trip id="88" depart="111.76" from="-E9" to="E5"/>
    <trip id="89" depart="113.03" from="-E11" to="E9"/>
    <trip id="90" depart="114.30" from="-E0" to="E7"/>
    <trip id="91" depart="115.57" from="-E5" to="E6"/>
    <trip id="92" depart="116.84" from="-E6" to="E7"/>
    <trip id="93" depart="118.11" from="-E14" to="-E3"/>
    <trip id="94" depart="119.38" from="-E5" to="E10"/>
    <trip id="95" depart="120.65" from="-E9" to="E12"/>
    <trip id="96" depart="121.92" from="-E13" to="E13"/>
    <trip id="97" depart="123.19" from="-E13" to="E6"/>
    <trip id="98" depart="124.46" from="-E1" to="-E2"/>
    <trip id="99" depart="125.73" from="-E8" to="E13"/>
    <trip id="100" depart="127.00" from="-E12" to="E13"/>
    <trip id="101" depart="128.27" from="-E10" to="E4"/>
    <trip id="102" depart="129.54" from="-E9" to="E13"/>
    <trip id="103" depart="130.81" from="-E9" to="E14"/>
    <trip id="104" depart="132.08" from="-E9" to="E14"/>
    <trip id="105" depart="133.35" from="-E11" to="E11"/>
    <trip id="106" depart="134.62" from="-E10" to="E11"/>
    <trip id="107" depart="135.89" from="-E6" to="E5"/>
    <trip id="108" depart="137.16" from="-E12" to="E8"/>
    <trip id="109" depart="138.43" from="-E14" to="E13"/>
    <trip id="110" depart="139.70" from="-E7" to="E13"/>
    <trip id="111" depart="140.97" from="-E8" to="E10"/>
    <trip id="112" depart="142.24" from="-E5" to="E10"/>
    <trip id="113" depart="143.51" from="-E10" to="E7"/>
    <trip id="114" depart="144.78" from="-E6" to="E1"/>
    <trip id="115" depart="146.05" from="-E9" to="E6"/>
    <trip id="116" depart="147.32" from="-E12" to="E12"/>
    <trip id="117" depart="148.59" from="-E6" to="E13"/>
    <trip id="118" depart="149.86" from="-E5" to="E10"/>
    <trip id="119" depart="151.13" from="-E13" to="-E3"/>
    <trip id="120" depart="152.40" from="-E6" to="E7"/>
    <trip id="121" depart="153.67" from="-E9" to="E12"/>
    <trip id="122" depart="154.94" from="-E10" to="E13"/>
    <trip id="123" depart="156.21" from="-E10" to="E9"/>
    <trip id="124" depart="157.48" from="-E7" to="E2"/>
    <trip id="125" depart="158.75" from="-E11" to="E7"/>
    <trip id="126" depart="160.02" from="-E8" to="E5"/>
    <trip id="127" depart="161.29" from="-E11" to="E8"/>
    <trip id="128" depart="162.56" from="-E8" to="E7"/>
    <trip id="129" depart="163.83" from="-E11" to="E14"/>
    <trip id="130" depart="165.10" from="-E9" to="E13"/>
    <trip id="131" depart="166.37" from="-E8" to="E6"/>
    <trip id="132" depart="167.64" from="-E12" to="E5"/>
    <trip id="133" depart="168.91" from="-E7" to="E8"/>
    <trip id="134" depart="170.18" from="-E7" to="E14"/>
    <trip id="135" depart="171.45" from="-E5" to="E11"/>
    <trip id="136" depart="172.72" from="-E11" to="E12"/>
    <trip id="137" depart="173.99" from="-E13" to="E13"/>
    <trip id="138" depart="175.26" from="-E5" to="E7"/>
    <trip id="139" depart="176.53" from="-E14" to="-E0"/>
    <trip id="140" depart="177.80" from="-E14" to="E12"/>
    <trip id="141" depart="179.07" from="-E12" to="E9"/>
    <trip id="142" depart="180.34" from="-E10" to="E14"/>
    <trip id="143" depart="181.61" from="-E6" to="E11"/>
    <trip id="144" depart="182.88" from="-E12" to="E9"/>
    <trip id="145" depart="184.15" from="-E5" to="E13"/>
    <trip id="146" depart="185.42" from="-E11" to="E14"/>
    <trip id="147" depart="186.69" from="-E6" to="E4"/>
    <trip id="148" depart="187.96" from="-E9" to="E10"/>
    <trip id="149" depart="189.23" from="-E11" to="E11"/>
    <trip id="150" depart="190.50" from="-E9" to="E5"/>
    <trip id="151" depart="191.77" from="-E5" to="E14"/>
    <trip id="152" depart="193.04" from="-E12" to="E6"/>
    <trip id="153" depart="194.31" from="-E5" to="E14"/>
    <trip id="154" depart="195.58" from="-E14" to="E10"/>
    <trip id="155" depart="196.85" from="-E9" to="E5"/>
    <trip id="156" depart="198.12" from="-E13" to="E11"/>
    <trip id="157" depart="199.39" from="-E5" to="E13"/>
    <trip id="158" depart="200.66" from="-E12" to="E5"/>
    <trip id="159" depart="201.93" from="-E6" to="E8"/>
    <trip id="160" depart="203.20" from="-E12" to="E0"/>
    <trip id="161" depart="204.47" from="-E10" to="E7"/>
    <trip id="162" depart="205.74" from="-E6" to="E5"/>
    <trip id="163" depart="207.01" from="-E13" to="E5"/>
    <trip id="164" depart="208.28" from="-E2" to="E13"/>
    <trip id="165" depart="209.55" from="-E7" to="E12"/>
    <trip id="166" depart="210.82" from="-E14" to="E7"/>
    <trip id="167" depart="212.09" from="-E13" to="E13"/>
    <trip id="168" depart="213.36" from="E0" to="E12"/>
    <trip id="169" depart="214.63" from="-E8" to="E0"/>
    <trip id="170" depart="215.90" from="-E5" to="-E1"/>
    <trip id="171" depart="217.17" from="-E5" to="E14"/>
    <trip id="172" depart="218.44" from="-E5" to="E7"/>
    <trip id="173" depart="219.71" from="-E5" to="E10"/>
    <trip id="174" depart="220.98" from="-E13" to="E11"/>
    <trip id="175" depart="222.25" from="-E9" to="E10"/>
    <trip id="176" depart="223.52" from="-E13" to="E6"/>
    <trip id="177" depart="224.79" from="-E14" to="E5"/>
    <trip id="178" depart="226.06" from="-E3" to="E5"/>
    <trip id="179" depart="227.33" from="-E11" to="E6"/>
    <trip id="180" depart="228.60" from="-E9" to="E6"/>
    <trip id="181" depart="229.87" from="-E11" to="E9"/>
    <trip id="182" depart="231.14" from="-E6" to="E7"/>
    <trip id="183" depart="232.41" from="-E5" to="E5"/>
    <trip id="184" depart="233.68" from="-E14" to="E6"/>
    <trip id="185" depart="234.95" from="-E11" to="E7"/>
    <trip id="186" depart="236.22" from="-E11" to="E10"/>
    <trip id="187" depart="237.49" from="-E9" to="E5"/>
    <trip id="188" depart="238.76" from="-E7" to="E11"/>
    <trip id="189" depart="240.03" from="-E6" to="E6"/>
    <trip id="190" depart="241.30" from="-E13" to="E14"/>
    <trip id="191" depart="242.57" from="-E6" to="E11"/>
    <trip id="192" depart="243.84" from="-E11" to="E11"/>
    <trip id="193" depart="245.11" from="-E11" to="E7"/>
    <trip id="194" depart="246.38" from="-E13" to="E3"/>
    <trip id="195" depart="247.65" from="-E9" to="E12"/>
    <trip id="196" depart="248.92" from="-E11" to="E7"/>
    <trip id="197" depart="250.19" from="-E10" to="E8"/>
    <trip id="198" depart="251.46" from="-E6" to="E12"/>
    <trip id="199" depart="252.73" from="-E7" to="E5"/>
    <trip id="200" depart="254.00" from="-E14" to="E12"/>
    <trip id="201" depart="255.27" from="-E11" to="E12"/>
    <trip id="202" depart="256.54" from="-E10" to="E12"/>
    <trip id="203" depart="257.81" from="-E13" to="E7"/>
    <trip id="204" depart="259.08" from="-E5" to="E13"/>
    <trip id="205" depart="260.35" from="-E9" to="E10"/>
    <trip id="206" depart="261.62" from="-E13" to="E8"/>
    <trip id="207" depart="262.89" from="-E9" to="E5"/>
    <trip id="208" depart="264.16" from="-E9" to="E7"/>
    <trip id="209" depart="265.43" from="-E14" to="-E2"/>
    <trip id="210" depart="266.70" from="E1" to="E7"/>
    <trip id="211" depart="267.97" from="-E13" to="E13"/>
    <trip id="212" depart="269.24" from="-E9" to="E13"/>
    <trip id="213" depart="270.51" from="-E10" to="E12"/>
    <trip id="214" depart="271.78" from="-E10" to="E9"/>
    <trip id="215" depart="273.05" from="-E8" to="E11"/>
    <trip id="216" depart="274.32" from="-E7" to="E7"/>
    <trip id="217" depart="275.59" from="-E13" to="E14"/>
    <trip id="218" depart="276.86" from="-E9" to="E10"/>
    <trip id="219" depart="278.13" from="-E14" to="E12"/>
    <trip id="220" depart="279.40" from="-E12" to="E9"/>
    <trip id="221" depart="280.67" from="-E5" to="E7"/>
    <trip id="222" depart="281.94" from="-E6" to="E13"/>
    <trip id="223" depart="283.21" from="-E11" to="E6"/>
    <trip id="224" depart="284.48" from="-E13" to="E12"/>
    <trip id="225" depart="285.75" from="-E12" to="E12"/>
    <trip id="226" depart="287.02" from="-E13" to="E14"/>
    <trip id="227" depart="288.29" from="-E14" to="E13"/>
    <trip id="228" depart="289.56" from="-E12" to="E10"/>
    <trip id="229" depart="290.83" from="-E12" to="E14"/>
    <trip id="230" depart="292.10" from="-E12" to="E8"/>
    <trip id="231" depart="293.37" from="-E10" to="E12"/>
    <trip id="232" depart="294.64" from="-E2" to="E10"/>
    <trip id="233" depart="295.91" from="-E12" to="E14"/>
    <trip id="234" depart="297.18" from="-E13" to="E5"/>
    <trip id="235" depart="298.45" from="-E9" to="E9"/>
    <trip id="236" depart="299.72" from="-E8" to="E5"/>
    <trip id="237" depart="300.99" from="-E5" to="E10"/>
    <trip id="238" depart="302.26" from="-E8" to="E9"/>
    <trip id="239" depart="303.53" from="-E8" to="E12"/>
    <trip id="240" depart="304.80" from="-E3" to="E8"/>
    <trip id="241" depart="306.07" from="-E12" to="E11"/>
    <trip id="242" depart="307.34" from="-E10" to="E10"/>
    <trip id="243" depart="308.61" from="-E5" to="E9"/>
    <trip id="244" depart="309.88" from="-E7" to="E11"/>
    <trip id="245" depart="311.15" from="-E13" to="E0"/>
    <trip id="246" depart="312.42" from="-E7" to="E8"/>
    <trip id="247" depart="313.69" from="-E10" to="E14"/>
    <trip id="248" depart="314.96" from="-E8" to="E5"/>
    <trip id="249" depart="316.23" from="-E8" to="E7"/>
    <trip id="250" depart="317.50" from="-E5" to="E6"/>
    <trip id="251" depart="318.77" from="-E1" to="E12"/>
    <trip id="252" depart="320.04" from="-E7" to="E8"/>
    <trip id="253" depart="321.31" from="-E9" to="E14"/>
    <trip id="254" depart="322.58" from="-E14" to="E1"/>
    <trip id="255" depart="323.85" from="-E11" to="E6"/>
    <trip id="256" depart="325.12" from="-E12" to="E10"/>
    <trip id="257" depart="326.39" from="-E4" to="E11"/>
    <trip id="258" depart="327.66" from="-E7" to="E7"/>
    <trip id="259" depart="328.93" from="-E7" to="E14"/>
    <trip id="260" depart="330.20" from="-E3" to="E12"/>
    <trip id="261" depart="331.47" from="-E14" to="E8"/>
    <trip id="262" depart="332.74" from="E1" to="E8"/>
    <trip id="263" depart="334.01" from="-E6" to="E12"/>
    <trip id="264" depart="335.28" from="-E8" to="E14"/>
    <trip id="265" depart="336.55" from="-E11" to="E5"/>
    <trip id="266" depart="337.82" from="-E12" to="E10"/>
    <trip id="267" depart="339.09" from="-E9" to="E12"/>
    <trip id="268" depart="340.36" from="-E11" to="E8"/>
    <trip id="269" depart="341.63" from="-E14" to="E7"/>
    <trip id="270" depart="342.90" from="-E6" to="E8"/>
    <trip id="271" depart="344.17" from="-E0" to="E9"/>
    <trip id="272" depart="345.44" from="-E14" to="E13"/>
    <trip id="273" depart="346.71" from="-E12" to="E14"/>
    <trip id="274" depart="347.98" from="-E14" to="E12"/>
    <trip id="275" depart="349.25" from="-E13" to="E12"/>
    <trip id="276" depart="350.52" from="-E12" to="E8"/>
    <trip id="277" depart="351.79" from="-E13" to="E14"/>
    <trip id="278" depart="353.06" from="-E14" to="E11"/>
    <trip id="279" depart="354.33" from="-E14" to="E14"/>
    <trip id="280" depart="355.60" from="-E8" to="E12"/>
    <trip id="281" depart="356.87" from="-E6" to="E11"/>
    <trip id="282" depart="358.14" from="-E13" to="E12"/>
    <trip id="283" depart="359.41" from="-E8" to="E8"/>
    <trip id="284" depart="360.68" from="-E10" to="E7"/>
    <trip id="285" depart="361.95" from="-E8" to="E5"/>
    <trip id="286" depart="363.22" from="-E9" to="E7"/>
    <trip id="287" depart="364.49" from="-E5" to="E11"/>
    <trip id="288" depart="365.76" from="-E7" to="E2"/>
    <trip id="289" depart="367.03" from="-E10" to="E9"/>
    <trip id="290" depart="368.30" from="-E11" to="E0"/>
    <trip id="291" depart="369.57" from="-E13" to="E11"/>
    <trip id="292" depart="370.84" from="-E7" to="E8"/>
    <trip id="293" depart="372.11" from="-E10" to="E13"/>
    <trip id="294" depart="373.38" from="-E12" to="E11"/>
    <trip id="295" depart="374.65" from="-E13" to="E12"/>
    <trip id="296" depart="375.92" from="-E13" to="E8"/>
    <trip id="297" depart="377.19" from="-E11" to="E6"/>
    <trip id="298" depart="378.46" from="-E13" to="E6"/>
    <trip id="299" depart="379.73" from="-E11" to="E9"/>
    <trip id="300" depart="381.00" from="-E11" to="E7"/>
    <trip id="301" depart="382.27" from="-E12" to="E10"/>
    <trip id="302" depart="383.54" from="-E5" to="E12"/>
    <trip id="303" depart="384.81" from="-E14" to="E13"/>
    <trip id="304" depart="386.08" from="-E9" to="E5"/>
    <trip id="305" depart="387.35" from="-E11" to="E9"/>
    <trip id="306" depart="388.62" from="E3" to="E8"/>
    <trip id="307" depart="389.89" from="-E9" to="E9"/>
    <trip id="308" depart="391.16" from="-E6" to="E13"/>
    <trip id="309" depart="392.43" from="-E12" to="E10"/>
    <trip id="310" depart="393.70" from="-E11" to="E6"/>
    <trip id="311" depart="394.97" from="-E5" to="E13"/>
    <trip id="312" depart="396.24" from="-E14" to="E10"/>
    <trip id="313" depart="397.51" from="-E9" to="E14"/>
    <trip id="314" depart="398.78" from="-E8" to="E12"/>
    <trip id="315" depart="400.05" from="-E12" to="E8"/>
    <trip id="316" depart="401.32" from="-E8" to="E2"/>
    <trip id="317" depart="402.59" from="-E7" to="E12"/>
    <trip id="318" depart="403.86" from="-E9" to="E7"/>
    <trip id="319" depart="405.13" from="-E10" to="E9"/>
    <trip id="320" depart="406.40" from="-E11" to="E6"/>
    <trip id="321" depart="407.67" from="-E5" to="E14"/>
    <trip id="322" depart="408.94" from="-E10" to="E12"/>
    <trip id="323" depart="410.21" from="-E7" to="E7"/>
    <trip id="324" depart="411.48" from="-E7" to="E9"/>
    <trip id="325" depart="412.75" from="-E12" to="E11"/>
    <trip id="326" depart="414.02" from="-E9" to="E5"/>
    <trip id="327" depart="415.29" from="-E11" to="E13"/>
    <trip id="328" depart="416.56" from="E3" to="E8"/>
    <trip id="329" depart="417.83" from="-E5" to="E9"/>
    <trip id="330" depart="419.10" from="-E6" to="E12"/>
    <trip id="331" depart="420.37" from="-E11" to="E6"/>
    <trip id="332" depart="421.64" from="-E10" to="E8"/>
    <trip id="333" depart="422.91" from="-E10" to="E10"/>
    <trip id="334" depart="424.18" from="-E7" to="-E0"/>
    <trip id="335" depart="425.45" from="-E5" to="E11"/>
    <trip id="336" depart="426.72" from="-E8" to="E12"/>
    <trip id="337" depart="427.99" from="-E10" to="E6"/>
    <trip id="338" depart="429.26" from="-E11" to="E5"/>
    <trip id="339" depart="430.53" from="-E5" to="E10"/>
    <trip id="340" depart="431.80" from="-E10" to="E11"/>
    <trip id="341" depart="433.07" from="-E12" to="E11"/>
    <trip id="342" depart="434.34" from="-E7" to="E10"/>
    <trip id="343" depart="435.61" from="-E12" to="E11"/>
    <trip id="344" depart="436.88" from="-E10" to="E7"/>
    <trip id="345" depart="438.15" from="-E13" to="E10"/>
    <trip id="346" depart="439.42" from="-E13" to="E5"/>
    <trip id="347" depart="440.69" from="-E1" to="E11"/>
    <trip id="348" depart="441.96" from="-E9" to="E14"/>
    <trip id="349" depart="443.23" from="-E11" to="E6"/>
    <trip id="350" depart="444.50" from="-E9" to="E7"/>
    <trip id="351" depart="445.77" from="-E14" to="E9"/>
    <trip id="352" depart="447.04" from="-E5" to="E11"/>
    <trip id="353" depart="448.31" from="-E14" to="E9"/>
    <trip id="354" depart="449.58" from="-E14" to="E11"/>
    <trip id="355" depart="450.85" from="-E11" to="E7"/>
    <trip id="356" depart="452.12" from="-E12" to="E14"/>
    <trip id="357" depart="453.39" from="-E6" to="E12"/>
    <trip id="358" depart="454.66" from="-E13" to="E8"/>
    <trip id="359" depart="455.93" from="-E6" to="E6"/>
    <trip id="360" depart="457.20" from="-E10" to="E7"/>
    <trip id="361" depart="458.47" from="-E7" to="E10"/>
    <trip id="362" depart="459.74" from="-E11" to="E14"/>
    <trip id="363" depart="461.01" from="-E12" to="E9"/>
    <trip id="364" depart="462.28" from="-E10" to="E9"/>
    <trip id="365" depart="463.55" from="-E11" to="E14"/>
    <trip id="366" depart="464.82" from="-E7" to="E6"/>
    <trip id="367" depart="466.09" from="-E13" to="E7"/>
    <trip id="368" depart="467.36" from="-E14" to="E7"/>
    <trip id="369" depart="468.63" from="-E12" to="E8"/>
    <trip id="370" depart="469.90" from="-E8" to="E5"/>
    <trip id="371" depart="471.17" from="-E2" to="E6"/>
    <trip id="372" depart="472.44" from="-E7" to="E8"/>
    <trip id="373" depart="473.71" from="-E14" to="E14"/>
    <trip id="374" depart="474.98" from="-E13" to="E13"/>
    <trip id="375" depart="476.25" from="-E13" to="E9"/>
    <trip id="376" depart="477.52" from="-E10" to="E7"/>
    <trip id="377" depart="478.79" from="-E6" to="E14"/>
    <trip id="378" depart="480.06" from="-E11" to="E12"/>
    <trip id="379" depart="481.33" from="-E9" to="E11"/>
    <trip id="380" depart="482.60" from="-E8" to="E14"/>
    <trip id="381" depart="483.87" from="-E13" to="E9"/>
    <trip id="382" depart="485.14" from="-E14" to="-E3"/>
    <trip id="383" depart="486.41" from="-E10" to="E6"/>
    <trip id="384" depart="487.68" from="-E13" to="E5"/>
    <trip id="385" depart="488.95" from="-E8" to="-E1"/>
    <trip id="386" depart="490.22" from="-E13" to="E2"/>
    <trip id="387" depart="491.49" from="-E10" to="E14"/>
    <trip id="388" depart="492.76" from="-E14" to="E7"/>
    <trip id="389" depart="494.03" from="-E11" to="E14"/>
    <trip id="390" depart="495.30" from="-E14" to="E10"/>
    <trip id="391" depart="496.57" from="-E5" to="E6"/>
    <trip id="392" depart="497.84" from="-E9" to="E5"/>
    <trip id="393" depart="499.11" from="-E10" to="E6"/>
    <trip id="394" depart="500.38" from="-E5" to="E12"/>
    <trip id="395" depart="501.65" from="-E11" to="E5"/>
    <trip id="396" depart="502.92" from="-E12" to="E6"/>
    <trip id="397" depart="504.19" from="-E11" to="E7"/>
    <trip id="398" depart="505.46" from="-E12" to="E14"/>
    <trip id="399" depart="506.73" from="-E13" to="E9"/>
    <trip id="400" depart="508.00" from="-E13" to="E9"/>
    <trip id="401" depart="509.27" from="-E12" to="E5"/>
    <trip id="402" depart="510.54" from="-E9" to="E14"/>
    <trip id="403" depart="511.81" from="-E12" to="E9"/>
    <trip id="404" depart="513.08" from="-E9" to="E12"/>
    <trip id="405" depart="514.35" from="-E10" to="E6"/>
    <trip id="406" depart="515.62" from="-E6" to="E7"/>
    <trip id="407" depart="516.89" from="-E6" to="E5"/>
    <trip id="408" depart="518.16" from="-E1" to="E11"/>
    <trip id="409" depart="519.43" from="-E8" to="E11"/>
    <trip id="410" depart="520.70" from="-E12" to="E10"/>
    <trip id="411" depart="521.97" from="-E7" to="E8"/>
    <trip id="412" depart="523.24" from="E1" to="E9"/>
    <trip id="413" depart="524.51" from="-E11" to="E12"/>
    <trip id="414" depart="525.78" from="-E12" to="E12"/>
    <trip id="415" depart="527.05" from="-E6" to="E9"/>
    <trip id="416" depart="528.32" from="-E5" to="E13"/>
    <trip id="417" depart="529.59" from="-E12" to="E9"/>
    <trip id="418" depart="530.86" from="-E12" to="E13"/>
    <trip id="419" depart="532.13" from="-E7" to="E12"/>
    <trip id="420" depart="533.40" from="-E9" to="E8"/>
    <trip id="421" depart="534.67" from="-E5" to="E12"/>
    <trip id="422" depart="535.94" from="-E11" to="E11"/>
    <trip id="423" depart="537.21" from="-E10" to="E10"/>
    <trip id="424" depart="538.48" from="-E13" to="E11"/>
    <trip id="425" depart="539.75" from="-E0" to="E1"/>
    <trip id="426" depart="541.02" from="-E9" to="E9"/>
    <trip id="427" depart="542.29" from="-E12" to="E12"/>
    <trip id="428" depart="543.56" from="-E10" to="E12"/>
    <trip id="429" depart="544.83" from="-E5" to="E9"/>
    <trip id="430" depart="546.10" from="-E5" to="E14"/>
    <trip id="431" depart="547.37" from="-E5" to="E13"/>
    <trip id="432" depart="548.64" from="-E7" to="E6"/>
    <trip id="433" depart="549.91" from="-E12" to="E12"/>
    <trip id="434" depart="551.18" from="-E14" to="E5"/>
    <trip id="435" depart="552.45" from="-E13" to="E13"/>
    <trip id="436" depart="553.72" from="-E12" to="E6"/>
    <trip id="437" depart="554.99" from="-E13" to="E10"/>
    <trip id="438" depart="556.26" from="-E6" to="E7"/>
    <trip id="439" depart="557.53" from="-E8" to="E9"/>
    <trip id="440" depart="558.80" from="-E9" to="E6"/>
    <trip id="441" depart="560.07" from="-E11" to="E2"/>
    <trip id="442" depart="561.34" from="-E12" to="E5"/>
    <trip id="443" depart="562.61" from="-E5" to="E5"/>
    <trip id="444" depart="563.88" from="-E6" to="E10"/>
    <trip id="445" depart="565.15" from="-E7" to="E9"/>
    <trip id="446" depart="566.42" from="-E11" to="E9"/>
    <trip id="447" depart="567.69" from="-E14" to="E13"/>
    <trip id="448" depart="568.96" from="-E13" to="E5"/>
    <trip id="449" depart="570.23" from="-E5" to="E5"/>
    <trip id="450" depart="571.50" from="-E5" to="E10"/>
    <trip id="451" depart="572.77" from="-E5" to="E14"/>
    <trip id="452" depart="574.04" from="-E5" to="E14"/>
    <trip id="453" depart="575.31" from="-E5" to="E13"/>
    <trip id="454" depart="576.58" from="-E5" to="E9"/>
    <trip id="455" depart="577.85" from="-E8" to="E9"/>
    <trip id="456" depart="579.12" from="-E12" to="E5"/>
    <trip id="457" depart="580.39" from="-E12" to="E10"/>
    <trip id="458" depart="581.66" from="-E12" to="E12"/>
    <trip id="459" depart="582.93" from="-E5" to="E9"/>
    <trip id="460" depart="584.20" from="-E13" to="E4"/>
    <trip id="461" depart="585.47" from="-E14" to="E14"/>
    <trip id="462" depart="586.74" from="-E9" to="E8"/>
    <trip id="463" depart="588.01" from="-E10" to="E10"/>
    <trip id="464" depart="589.28" from="-E9" to="E7"/>
    <trip id="465" depart="590.55" from="-E5" to="E6"/>
    <trip id="466" depart="591.82" from="-E5" to="E5"/>
    <trip id="467" depart="593.09" from="-E13" to="E9"/>
    <trip id="468" depart="594.36" from="-E6" to="E7"/>
    <trip id="469" depart="595.63" from="-E1" to="E12"/>
    <trip id="470" depart="596.90" from="-E8" to="E13"/>
    <trip id="471" depart="598.17" from="-E9" to="E7"/>
    <trip id="472" depart="599.44" from="E1" to="E12"/>
    <trip id="473" depart="600.71" from="-E9" to="E5"/>
    <trip id="474" depart="601.98" from="-E11" to="E13"/>
    <trip id="475" depart="603.25" from="-E13" to="-E0"/>
    <trip id="476" depart="604.52" from="-E14" to="E14"/>
    <trip id="477" depart="605.79" from="-E14" to="E14"/>
    <trip id="478" depart="607.06" from="-E13" to="E9"/>
    <trip id="479" depart="608.33" from="-E11" to="E9"/>
    <trip id="480" depart="609.60" from="-E5" to="E7"/>
    <trip id="481" depart="610.87" from="-E11" to="E6"/>
    <trip id="482" depart="612.14" from="-E6" to="E9"/>
    <trip id="483" depart="613.41" from="-E14" to="E9"/>
    <trip id="484" depart="614.68" from="-E7" to="E6"/>
    <trip id="485" depart="615.95" from="-E3" to="E2"/>
    <trip id="486" depart="617.22" from="-E6" to="E8"/>
    <trip id="487" depart="618.49" from="-E6" to="E11"/>
    <trip id="488" depart="619.76" from="-E7" to="E11"/>
    <trip id="489" depart="621.03" from="-E6" to="-E2"/>
    <trip id="490" depart="622.30" from="-E13" to="E9"/>
    <trip id="491" depart="623.57" from="-E11" to="E6"/>
    <trip id="492" depart="624.84" from="-E11" to="E5"/>
    <trip id="493" depart="626.11" from="-E9" to="E8"/>
    <trip id="494" depart="627.38" from="-E12" to="E12"/>
    <trip id="495" depart="628.65" from="-E8" to="E6"/>
    <trip id="496" depart="629.92" from="-E9" to="E14"/>
    <trip id="497" depart="631.19" from="-E7" to="E8"/>
    <trip id="498" depart="632.46" from="-E7" to="E5"/>
    <trip id="499" depart="633.73" from="-E10" to="E8"/>
    <trip id="500" depart="635.00" from="-E10" to="E14"/>
    <trip id="501" depart="636.27" from="-E11" to="E14"/>
    <trip id="502" depart="637.54" from="-E11" to="E7"/>
    <trip id="503" depart="638.81" from="-E7" to="E10"/>
    <trip id="504" depart="640.08" from="-E11" to="E10"/>
    <trip id="505" depart="641.35" from="-E9" to="E5"/>
    <trip id="506" depart="642.62" from="-E13" to="E7"/>
    <trip id="507" depart="643.89" from="-E6" to="E13"/>
    <trip id="508" depart="645.16" from="-E7" to="E6"/>
    <trip id="509" depart="646.43" from="-E10" to="E12"/>
    <trip id="510" depart="647.70" from="-E12" to="E12"/>
    <trip id="511" depart="648.97" from="-E5" to="E14"/>
    <trip id="512" depart="650.24" from="-E9" to="E7"/>
    <trip id="513" depart="651.51" from="-E2" to="E0"/>
    <trip id="514" depart="652.78" from="-E7" to="E6"/>
    <trip id="515" depart="654.05" from="-E6" to="E10"/>
    <trip id="516" depart="655.32" from="-E10" to="E13"/>
    <trip id="517" depart="656.59" from="-E11" to="E7"/>
    <trip id="518" depart="657.86" from="-E6" to="-E1"/>