<?xml version="1.0" encoding="UTF-8"?>

<!-- generated on 2026-04-19 11:07:20.940767 by Eclipse SUMO randomTrips.py v1_26_0+0000-fa7df22d7f1
<configuration>
    <net-file value="C:\Users\Furkan\Desktop\traficies\trafix\sumo\map.net.xml"/>
    <output-trip-file value="C:\Users\Furkan\Desktop\traficies\trafix\sumo\training_demand.rou.xml"/>
    <fringe-factor value="10"/>
    <seed value="72103"/>
    <period value="1.23"/>
</configuration>
-->

<routes xmlns:xsi="http://www.w3.org/2001/XMLSchema-instance" xsi:noNamespaceSchemaLocation="http://sumo.dlr.de/xsd/routes_file.xsd">
    <trip id="0" depart="0.00" from="-E12" to="E6"/>
    <trip id="1" depart="1.23" from="-E7" to="E10"/>
    <trip id="2" depart="2.46" from="-E10" to="E9"/>
    <trip id="3" depart="3.69" from="-E5" to="E13"/>
    <trip id="4" depart="4.92" from="-E8" to="E6"/>
    <trip id="5" depart="6.15" from="-E11" to="E13"/>
    <trip id="6" depart="7.38" from="-E14" to="E6"/>
    <trip id="7" depart="8.61" from="-E10" to="E13"/>
    <trip id="8" depart="9.84" from="-E10" to="E10"/>
    <trip id="9" depart="11.07" from="-E0" to="E5"/>
    <trip id="10" depart="12.30" from="-E11" to="E6"/>
    <trip id="11" depart="13.53" from="-E11" to="E13"/>
    <trip id="12" depart="14.76" from="-E14" to="E9"/>
    <trip id="13" depart="15.99" from="-E7" to="E8"/>
    <trip id="14" depart="17.22" from="-E12" to="E8"/>
    <trip id="15" depart="18.45" from="-E10" to="E12"/>
    <trip id="16" depart="19.68" from="-E14" to="E10"/>
    <trip id="17" depart="20.91" from="-E12" to="E7"/>
    <trip id="18" depart="22.14" from="-E5" to="E14"/>
    <trip id="19" depart="23.37" from="-E9" to="E14"/>
    <trip id="20" depart="24.60" from="-E14" to="E8"/>
    <trip id="21" depart="25.83" from="E3" to="E8"/>
    <trip id="22" depart="27.06" from="-E10" to="E5"/>
    <trip id="23" depart="28.29" from="-E12" to="E6"/>
    <trip id="24" depart="29.52" from="-E9" to="E10"/>
    <trip id="25" depart="30.75" from="-E5" to="E10"/>
    <trip id="26" depart="31.98" from="-E12" to="E10"/>
    <trip id="27" depart="33.21" from="-E14" to="E13"/>
    <trip id="28" depart="34.44" from="-E8" to="E12"/>
    <trip id="29" depart="35.67" from="-E12" to="E5"/>
    <trip id="30" depart="36.90" from="-E5" to="E8"/>
    <trip id="31" depart="38.13" from="-E6" to="E7"/>
    <trip id="32" depart="39.36" from="-E10" to="E14"/>
    <trip id="33" depart="40.59" from="-E13" to="-E2"/>
    <trip id="34" depart="41.82" from="-E10" to="E6"/>
    <trip id="35" depart="43.05" from="-E13" to="E14"/>
    <trip id="36" depart="44.28" from="-E10" to="E8"/>
    <trip id="37" depart="45.51" from="E3" to="E9"/>
    <trip id="38" depart="46.74" from="-E13" to="E10"/>
    <trip id="39" depart="47.97" from="-E7" to="E8"/>
    <trip id="40" depart="49.20" from="-E13" to="E12"/>
    <trip id="41" depart="50.43" from="-E8" to="E6"/>
    <trip id="42" depart="51.66" from="-E7" to="E10"/>
    <trip id="43" depart="52.89" from="-E4" to="E5"/>
    <trip id="44" depart="54.12" from="-E13" to="E10"/>
    <trip id="45" depart="55.35" from="-E11" to="E13"/>
    <trip id="46" depart="56.58" from="-E11" to="E10"/>
    <trip id="47" depart="57.81" from="-E12" to="E5"/>
    <trip id="48" depart="59.04" from="-E0" to="E10"/>
    <trip id="49" depart="60.27" from="-E10" to="E13"/>
    <trip id="50" depart="61.50" from="-E5" to="E14"/>
    <trip id="51" depart="62.73" from="-E9" to="E12"/>
    <trip id="52" depart="63.96" from="-E13" to="E9"/>
    <trip id="53" depart="65.19" from="-E9" to="E10"/>
    <trip id="54" depart="66.42" from="-E3" to="E7"/>
    <trip id="55" depart="67.65" from="-E5" to="E13"/>
    <trip id="56" depart="68.88" from="-E8" to="E9"/>
    <trip id="57" depart="70.11" from="-E8" to="E13"/>
    <trip id="58" depart="71.34" from="-E11" to="E14"/>
    <trip id="59" depart="72.57" from="-E6" to="E12"/>
    <trip id="60" depart="73.80" from="-E13" to="E7"/>
    <trip id="61" depart="75.03" from="-E8" to="E10"/>
    <trip id="62" depart="76.26" from="-E5" to="E5"/>
    <trip id="63" depart="77.49" from="-E11" to="E6"/>
    <trip id="64" depart="78.72" from="-E7" to="E13"/>
    <trip id="65" depart="79.95" from="-E13" to="E8"/>
    <trip id="66" depart="81.18" from="-E11" to="E5"/>
    <trip id="67" depart="82.41" from="-E6" to="E5"/>
    <trip id="68" depart="83.64" from="-E5" to="E12"/>
    <trip id="69" depart="84.87" from="-E14" to="-E3"/>
    <trip id="70" depart="86.10" from="-E11" to="E7"/>
    <trip id="71" depart="87.33" from="-E11" to="E9"/>
    <trip id="72" depart="88.56" from="-E12" to="-E2"/>
    <trip id="73" depart="89.79" from="-E9" to="E5"/>
    <trip id="74" depart="91.02" from="-E5" to="E12"/>
    <trip id="75" depart="92.25" from="-E12" to="E12"/>
    <trip id="76" depart="93.48" from="-E5" to="E10"/>
    <trip id="77" depart="94.71" from="-E12" to="E8"/>
    <trip id="78" depart="95.94" from="-E12" to="E10"/>
    <trip id="79" depart="97.17" from="-E6" to="E5"/>
    <trip id="80" depart="98.40" from="-E8" to="E13"/>
    <trip id="81" depart="99.63" from="-E12" to="E11"/>
    <trip id="82" depart="100.86" from="-E13" to="E5"/>
    <trip id="83" depart="102.09" from="-E14" to="E12"/>
    <trip id="84" depart="103.32" from="-E11" to="E13"/>
    <trip id="85" depart="104.55" from="-E13" to="E12"/>
    <trip id="86" depart="105.78" from="-E8" to="E13"/>
    <trip id="87" depart="107.01" from="-E7" to="E12"/>
    <trip id="88" depart="108.24" from="-E9" to="E12"/>
    <trip id="89" depart="109.47" from="-E6" to="E13"/>
    <trip id="90" depart="110.70" from="-E7" to="E10"/>
    <trip id="91" depart="111.93" from="-E9" to="E12"/>
    <trip id="92" depart="113.16" from="-E11" to="E11"/>
    <trip id="93" depart="114.39" from="-E13" to="E8"/>
    <trip id="94" depart="115.62" from="-E12" to="E6"/>
    <trip id="95" depart="116.85" from="-E11" to="E12"/>
    <trip id="96" depart="118.08" from="-E7" to="E8"/>
    <trip id="97" depart="119.31" from="-E13" to="E5"/>
    <trip id="98" depart="120.54" from="-E13" to="E6"/>
    <trip id="99" depart="121.77" from="-E10" to="E7"/>
    <trip id="100" depart="123.00" from="-E5" to="E6"/>
    <trip id="101" depart="124.23" from="-E12" to="E7"/>
    <trip id="102" depart="125.46" from="-E13" to="E9"/>
    <trip id="103" depart="126.69" from="-E13" to="E10"/>
    <trip id="104" depart="127.92" from="-E12" to="E13"/>
    <trip id="105" depart="129.15" from="-E13" to="E14"/>
    <trip id="106" depart="130.38" from="-E8" to="E7"/>
    <trip id="107" depart="131.61" from="-E5" to="E3"/>
    <trip id="108" depart="132.84" from="-E9" to="E10"/>
    <trip id="109" depart="134.07" from="E3" to="E8"/>
    <trip id="110" depart="135.30" from="-E6" to="E14"/>
    <trip id="111" depart="136.53" from="-E5" to="E10"/>
    <trip id="112" depart="137.76" from="-E12" to="E13"/>
    <trip id="113" depart="138.99" from="-E9" to="E7"/>
    <trip id="114" depart="140.22" from="-E5" to="E14"/>
    <trip id="115" depart="141.45" from="-E13" to="E12"/>
    <trip id="116" depart="142.68" from="-E7" to="E11"/>
    <trip id="117" depart="143.91" from="-E10" to="E7"/>
    <trip id="118" depart="145.14" from="-E7" to="E14"/>
    <trip id="119" depart="146.37" from="-E13" to="E8"/>
    <trip id="120" depart="147.60" from="-E6" to="E4"/>
    <trip id="121" depart="148.83" from="-E8" to="E12"/>
    <trip id="122" depart="150.06" from="-E12" to="E11"/>
    <trip id="123" depart="151.29" from="-E14" to="E6"/>
    <trip id="124" depart="152.52" from="-E9" to="E8"/>
    <trip id="125" depart="153.75" from="-E13" to="E13"/>
    <trip id="126" depart="154.98" from="-E6" to="E13"/>
    <trip id="127" depart="156.21" from="-E10" to="E8"/>
    <trip id="128" depart="157.44" from="E2" to="E6"/>
    <trip id="129" depart="158.67" from="-E14" to="-E2"/>
    <trip id="130" depart="159.90" from="-E14" to="E14"/>
    <trip id="131" depart="161.13" from="-E6" to="E6"/>
    <trip id="132" depart="162.36" from="-E11" to="E9"/>
    <trip id="133" depart="163.59" from="-E13" to="E13"/>
    <trip id="134" depart="164.82" from="-E8" to="E7"/>
    <trip id="135" depart="166.05" from="-E14" to="E5"/>
    <trip id="136" depart="167.28" from="-E11" to="E7"/>
    <trip id="137" depart="168.51" from="-E11" to="E13"/>
    <trip id="138" depart="169.74" from="-E6" to="E6"/>
    <trip id="139" depart="170.97" from="-E7" to="E10"/>
    <trip id="140" depart="172.20" from="-E14" to="E13"/>
    <trip id="141" depart="173.43" from="-E9" to="E10"/>
    <trip id="142" depart="174.66" from="-E6" to="E2"/>
    <trip id="143" depart="175.89" from="-E13" to="E12"/>
    <trip id="144" depart="177.12" from="-E8" to="E11"/>
    <trip id="145" depart="178.35" from="-E5" to="E11"/>
    <trip id="146" depart="179.58" from="-E9" to="E5"/>
    <trip id="147" depart="180.81" from="-E13" to="E7"/>
    <trip id="148" depart="182.04" from="-E8" to="E9"/>
    <trip id="149" depart="183.27" from="-E13" to="E7"/>
    <trip id="150" depart="184.50" from="-E0" to="E10"/>
    <trip id="151" depart="185.73" from="-E9" to="E5"/>
    <trip id="152" depart="186.96" from="-E10" to="E9"/>
    <trip id="153" depart="188.19" from="-E11" to="E7"/>
    <trip id="154" depart="189.42" from="-E10" to="E11"/>
    <trip id="155" depart="190.65" from="-E9" to="E9"/>
    <trip id="156" depart="191.88" from="-E14" to="E13"/>
    <trip id="157" depart="193.11" from="-E6" to="E8"/>
    <trip id="158" depart="194.34" from="-E13" to="E5"/>
    <trip id="159" depart="195.57" from="-E11" to="E12"/>
    <trip id="160" depart="196.80" from="-E13" to="E9"/>
    <trip id="161" depart="198.03" from="-E10" to="E9"/>
    <trip id="162" depart="199.26" from="-E14" to="E10"/>
    <trip id="163" depart="200.49" from="E1" to="E14"/>
    <trip id="164" depart="201.72" from="-E9" to="E8"/>
    <trip id="165" depart="202.95" from="-E6" to="E9"/>
    <trip id="166" depart="204.18" from="-E8" to="E14"/>
    <trip id="167" depart="205.41" from="-E11" to="E5"/>
    <trip id="168" depart="206.64" from="-E7" to="E6"/>
    <trip id="169" depart="207.87" from="-E11" to="E14"/>
    <trip id="170" depart="209.10" from="-E13" to="E6"/>
    <trip id="171" depart="210.33" from="-E9" to="E14"/>
    <trip id="172" depart="211.56" from="-E11" to="E6"/>
    <trip id="173" depart="212.79" from="-E11" to="E5"/>
    <trip id="174" depart="214.02" from="E3" to="E5"/>
    <trip id="175" depart="215.25" from="-E6" to="E7"/>
    <trip id="176" depart="216.48" from="-E11" to="E8"/>
    <trip id="177" depart="217.71" from="-E13" to="E10"/>
    <trip id="178" depart="218.94" from="-E12" to="E6"/>
    <trip id="179" depart="220.17" from="-E14" to="E5"/>
    <trip id="180" depart="221.40" from="-E11" to="E10"/>
    <trip id="181" depart="222.63" from="-E13" to="E14"/>
    <trip id="182" depart="223.86" from="-E3" to="E12"/>
    <trip id="183" depart="225.09" from="-E12" to="E12"/>
    <trip id="184" depart="226.32" from="-E11" to="E8"/>
    <trip id="185" depart="227.55" from="-E14" to="E14"/>
    <trip id="186" depart="228.78" from="-E0" to="E10"/>
    <trip id="187" depart="230.01" from="-E11" to="E10"/>
    <trip id="188" depart="231.24" from="-E9" to="E2"/>
    <trip id="189" depart="232.47" from="-E13" to="E10"/>
    <trip id="190" depart="233.70" from="-E11" to="E10"/>
    <trip id="191" depart="234.93" from="-E9" to="E7"/>
    <trip id="192" depart="236.16" from="-E13" to="E8"/>
    <trip id="193" depart="237.39" from="-E11" to="E8"/>
    <trip id="194" depart="238.62" from="-E13" to="E12"/>
    <trip id="195" depart="239.85" from="-E9" to="E11"/>
    <trip id="196" depart="241.08" from="-E13" to="E14"/>
    <trip id="197" depart="242.31" from="-E14" to="E13"/>
    <trip id="198" depart="243.54" from="-E5" to="E7"/>
    <trip id="199" depart="244.77" from="-E10" to="E10"/>
    <trip id="200" depart="246.00" from="-E12" to="E9"/>
    <trip id="201" depart="247.23" from="-E11" to="E12"/>
    <trip id="202" depart="248.46" from="-E13" to="E12"/>
    <trip id="203" depart="249.69" from="-E4" to="E5"/>
    <trip id="204" depart="250.92" from="-E10" to="E9"/>
    <trip id="205" depart="252.15" from="-E5" to="E9"/>
    <trip id="206" depart="253.38" from="-E8" to="E14"/>
    <trip id="207" depart="254.61" from="-E11" to="E13"/>
    <trip id="208" depart="255.84" from="-E5" to="E10"/>
    <trip id="209" depart="257.07" from="-E9" to="E8"/>
    <trip id="210" depart="258.30" from="-E10" to="E14"/>
    <trip id="211" depart="259.53" from="-E5" to="E13"/>
    <trip id="212" depart="260.76" from="E2" to="E13"/>
    <trip id="213" depart="261.99" from="-E7" to="E11"/>
    <trip id="214" depart="263.22" from="-E10" to="E8"/>
    <trip id="215" depart="264.45" from="-E5" to="E8"/>
    <trip id="216" depart="265.68" from="-E10" to="E8"/>
    <trip id="217" depart="266.91" from="-E8" to="E11"/>
    <trip id="218" depart="268.14" from="-E7" to="E13"/>
    <trip id="219" depart="269.37" from="-E11" to="E14"/>
    <trip id="220" depart="270.60" from="-E11" to="E10"/>
    <trip id="221" depart="271.83" from="-E10" to="-E3"/>
    <trip id="222" depart="273.06" from="-E9" to="E14"/>
    <trip id="223" depart="274.29" from="-E10" to="E10"/>
    <trip id="224" depart="275.52" from="-E14" to="E10"/>
    <trip id="225" depart="276.75" from="-E6" to="E14"/>
    <trip id="226" depart="277.98" from="-E5" to="E6"/>
    <trip id="227" depart="279.21" from="-E9" to="E8"/>
    <trip id="228" depart="280.44" from="-E10" to="E5"/>
    <trip id="229" depart="281.67" from="-E10" to="E12"/>
    <trip id="230" depart="282.90" from="-E14" to="E13"/>
    <trip id="231" depart="284.13" from="-E11" to="E8"/>
    <trip id="232" depart="285.36" from="-E13" to="E13"/>
    <trip id="233" depart="286.59" from="-E7" to="E9"/>
    <trip id="234" depart="287.82" from="-E11" to="E7"/>
    <trip id="235" depart="289.05" from="-E13" to="E14"/>
    <trip id="236" depart="290.28" from="-E6" to="E7"/>
    <trip id="237" depart="291.51" from="-E9" to="E11"/>
    <trip id="238" depart="292.74" from="-E7" to="E12"/>
    <trip id="239" depart="293.97" from="-E12" to="E14"/>
    <trip id="240" depart="295.20" from="-E11" to="E9"/>
    <trip id="241" depart="296.43" from="-E5" to="E13"/>
    <trip id="242" depart="297.66" from="-E10" to="E13"/>
    <trip id="243" depart="298.89" from="-E5" to="E6"/>
    <trip id="244" depart="300.12" from="-E7" to="E13"/>
    <trip id="245" depart="301.35" from="-E8" to="E14"/>
    <trip id="246" depart="302.58" from="-E11" to="E10"/>
    <trip id="247" depart="303.81" from="-E8" to="E5"/>
    <trip id="248" depart="305.04" from="-E7" to="E11"/>
    <trip id="249" depart="306.27" from="-E5" to="E9"/>
    <trip id="250" depart="307.50" from="-E8" to="E13"/>
    <trip id="251" depart="308.73" from="-E8" to="E8"/>
    <trip id="252" depart="309.96" from="-E11" to="E7"/>
    <trip id="253" depart="311.19" from="-E14" to="E5"/>
    <trip id="254" depart="312.42" from="-E10" to="E8"/>
    <trip id="255" depart="313.65" from="-E10" to="E10"/>
    <trip id="256" depart="314.88" from="E1" to="E8"/>
    <trip id="257" depart="316.11" from="-E12" to="E6"/>
    <trip id="258" depart="317.34" from="-E14" to="E12"/>
    <trip id="259" depart="318.57" from="-E5" to="E8"/>
    <trip id="260" depart="319.80" from="-E13" to="E8"/>
    <trip id="261" depart="321.03" from="-E5" to="E14"/>
    <trip id="262" depart="322.26" from="-E3" to="E10"/>
    <trip id="263" depart="323.49" from="-E7" to="E9"/>
    <trip id="264" depart="324.72" from="-E11" to="E13"/>
    <trip id="265" depart="325.95" from="-E7" to="E14"/>
    <trip id="266" depart="327.18" from="-E10" to="E8"/>
    <trip id="267" depart="328.41" from="-E7" to="E9"/>
    <trip id="268" depart="329.64" from="-E8" to="E7"/>
    <trip id="269" depart="330.87" from="-E4" to="E11"/>
    <trip id="270" depart="332.10" from="-E5" to="E5"/>
    <trip id="271" depart="333.33" from="E0" to="E11"/>
    <trip id="272" depart="334.56" from="-E9" to="E12"/>
    <trip id="273" depart="335.79" from="-E8" to="E9"/>
    <trip id="274" depart="337.02" from="-E11" to="E8"/>
    <trip id="275" depart="338.25" from="-E14" to="E13"/>
    <trip id="276" depart="339.48" from="-E12" to="E5"/>
    <trip id="277" depart="340.71" from="-E9" to="E10"/>
    <trip id="278" depart="341.94" from="-E5" to="E9"/>
    <trip id="279" depart="343.17" from="-E7" to="E13"/>
    <trip id="280" depart="344.40" from="-E6" to="E9"/>
    <trip id="281" depart="345.63" from="-E13" to="E13"/>
    <trip id="282" depart="346.86" from="-E0" to="E2"/>
    <trip id="283" depart="348.09" from="-E10" to="E5"/>
    <trip id="284" depart="349.32" from="-E12" to="E5"/>
    <trip id="285" depart="350.55" from="-E7" to="E10"/>
    <trip id="286" depart="351.78" from="-E12" to="E8"/>
    <trip id="287" depart="353.01" from="-E14" to="E13"/>
    <trip id="288" depart="354.24" from="-E8" to="E9"/>
    <trip id="289" depart="355.47" from="-E11" to="E14"/>
    <trip id="290" depart="356.70" from="-E14" to="E7"/>
    <trip id="291" depart="357.93" from="-E6" to="E9"/>
    <trip id="292" depart="359.16" from="-E6" to="E10"/>
    <trip id="293" depart="360.39" from="-E12" to="E6"/>
    <trip id="294" depart="361.62" from="-E1" to="E13"/>
    <trip id="295" depart="362.85" from="-E9" to="E10"/>
    <trip id="296" depart="364.08" from="-E12" to="E11"/>
    <trip id="297" depart="365.31" from="-E12" to="E6"/>
    <trip id="298" depart="366.54" from="-E6" to="E10"/>
    <trip id="299" depart="367.77" from="-E13" to="E13"/>
    <trip id="300" depart="369.00" from="-E4" to="E5"/>
    <trip id="301" depart="370.23" from="-E5" to="E10"/>
    <trip id="302" depart="371.46" from="-E9" to="E6"/>
    <trip id="303" depart="372.69" from="-E6" to="E7"/>
    <trip id="304" depart="373.92" from="-E12" to="E11"/>
    <trip id="305" depart="375.15" from="-E14" to="E5"/>
    <trip id="306" depart="376.38" from="-E13" to="-E0"/>
    <trip id="307" depart="377.61" from="-E14" to="E9"/>
    <trip id="308" depart="378.84" from="-E13" to="E12"/>
    <trip id="309" depart="380.07" from="-E14" to="E9"/>
    <trip id="310" depart="381.30" from="-E8" to="E14"/>
    <trip id="311" depart="382.53" from="-E5" to="E8"/>
    <trip id="312" depart="383.76" from="-E12" to="E14"/>
    <trip id="313" depart="384.99" from="-E9" to="E7"/>
    <trip id="314" depart="386.22" from="-E12" to="E13"/>
    <trip id="315" depart="387.45" from="-E9" to="E7"/>
    <trip id="316" depart="388.68" from="-E8" to="E11"/>
    <trip id="317" depart="389.91" from="-E11" to="E9"/>
    <trip id="318" depart="391.14" from="-E11" to="E7"/>
    <trip id="319" depart="392.37" from="-E12" to="E13"/>
    <trip id="320" depart="393.60" from="-E6" to="E14"/>
    <trip id="321" depart="394.83" from="-E5" to="E6"/>
    <trip id="322" depart="396.06" from="-E8" to="E14"/>
    <trip id="323" depart="397.29" from="-E5" to="E8"/>
    <trip id="324" depart="398.52" from="-E14" to="E13"/>
    <trip id="325" depart="399.75" from="-E5" to="E10"/>
    <trip id="326" depart="400.98" from="-E9" to="E9"/>
    <trip id="327" depart="402.21" from="-E13" to="E9"/>
    <trip id="328" depart="403.44" from="-E10" to="E14"/>
    <trip id="329" depart="404.67" from="-E9" to="E6"/>
    <trip id="330" depart="405.90" from="-E12" to="E5"/>
    <trip id="331" depart="407.13" from="-E7" to="E6"/>
    <trip id="332" depart="408.36" from="-E10" to="E7"/>
    <trip id="333" depart="409.59" from="-E13" to="E5"/>
    <trip id="334" depart="410.82" from="-E10" to="E7"/>
    <trip id="335" depart="412.05" from="-E5" to="E11"/>
    <trip id="336" depart="413.28" from="-E14" to="E8"/>
    <trip id="337" depart="414.51" from="-E8" to="E12"/>
    <trip id="338" depart="415.74" from="-E7" to="E8"/>
    <trip id="339" depart="416.97" from="-E13" to="E14"/>
    <trip id="340" depart="418.20" from="-E8" to="E12"/>
    <trip id="341" depart="419.43" from="-E5" to="-E3"/>
    <trip id="342" depart="420.66" from="-E6" to="E10"/>
    <trip id="343" depart="421.89" from="-E5" to="E5"/>
    <trip id="344" depart="423.12" from="E4" to="E13"/>
    <trip id="345" depart="424.35" from="-E11" to="E12"/>
    <trip id="346" depart="425.58" from="-E5" to="E6"/>
    <trip id="347" depart="426.81" from="-E5" to="E12"/>
    <trip id="348" depart="428.04" from="-E14" to="-E2"/>
    <trip id="349" depart="429.27" from="-E13" to="E10"/>
    <trip id="350" depart="430.50" from="-E5" to="E8"/>
    <trip id="351" depart="431.73" from="-E13" to="-E1"/>
    <trip id="352" depart="432.96" from="-E11" to="E10"/>
    <trip id="353" depart="434.19" from="-E6" to="E4"/>
    <trip id="354" depart="435.42" from="-E7" to="E0"/>
    <trip id="355" depart="436.65" from="-E8" to="E11"/>
    <trip id="356" depart="437.88" from="-E8" to="E10"/>
    <trip id="357" depart="439.11" from="-E5" to="-E1"/>
    <trip id="358" depart="440.34" from="-E12" to="E8"/>
    <trip id="359" depart="441.57" from="-E13" to="E11"/>
    <trip id="360" depart="442.80" from="-E6" to="E13"/>
    <trip id="361" depart="444.03" from="E0" to="E5"/>
    <trip id="362" depart="445.26" from="-E6" to="E12"/>
    <trip id="363" depart="446.49" from="-E11" to="E5"/>
    <trip id="364" depart="447.72" from="-E6" to="E12"/>
    <trip id="365" depart="448.95" from="-E12" to="E13"/>
    <trip id="366" depart="450.18" from="-E7" to="E0"/>
    <trip id="367" depart="451.41" from="-E5" to="E7"/>
    <trip id="368" depart="452.64" from="-E5" to="E5"/>
    <trip id="369" depart="453.87" from="-E12" to="E14"/>
    <trip id="370" depart="455.10" from="-E6" to="E7"/>
    <trip id="371" depart="456.33" from="-E6" to="E12"/>
    <trip id="372" depart="457.56" from="-E5" to="E14"/>
    <trip id="373" depart="458.79" from="-E12" to="E1"/>
    <trip id="374" depart="460.02" from="-E6" to="E13"/>
    <trip id="375" depart="461.25" from="-E11" to="E11"/>
    <trip id="376" depart="462.48" from="-E8" to="E10"/>
    <trip id="377" depart="463.71" from="-E7" to="E1"/>
    <trip id="378" depart="464.94" from="-E11" to="E14"/>
    <trip id="379" depart="466.17" from="-E9" to="E9"/>
    <trip id="380" depart="467.40" from="-E6" to="-E0"/>
    <trip id="381" depart="468.63" from="-E12" to="E12"/>
    <trip id="382" depart="469.86" from="-E5" to="E13"/>
    <trip id="383" depart="471.09" from="-E9" to="E11"/>
    <trip id="384" depart="472.32" from="-E10" to="E5"/>
    <trip id="385" depart="473.55" from="-E7" to="E5"/>
    <trip id="386" depart="474.78" from="-E11" to="E8"/>
    <trip id="387" depart="476.01" from="-E12" to="E2"/>
    <trip id="388" depart="477.24" from="-E11" to="E8"/>
    <trip id="389" depart="478.47" from="-E8" to="E13"/>
    <trip id="390" depart="479.70" from="-E11" to="E12"/>
    <trip id="391" depart="480.93" from="-E12" to="E9"/>
    <trip id="392" depart="482.16" from="-E12" to="-E4"/>
    <trip id="393" depart="483.39" from="-E14" to="E11"/>
    <trip id="394" depart="484.62" from="-E5" to="E11"/>
    <trip id="395" depart="485.85" from="-E13" to="-E2"/>
    <trip id="396" depart="487.08" from="-E7" to="E12"/>
    <trip id="397" depart="488.31" from="-E5" to="E6"/>
    <trip id="398" depart="489.54" from="-E9" to="E12"/>
    <trip id="399" depart="490.77" from="-E11" to="E8"/>
    <trip id="400" depart="492.00" from="-E14" to="E10"/>
    <trip id="401" depart="493.23" from="-E11" to="E7"/>
    <trip id="402" depart="494.46" from="-E12" to="E9"/>
    <trip id="403" depart="495.69" from="-E14" to="E7"/>
    <trip id="404" depart="496.92" from="-E0" to="E11"/>
    <trip id="405" depart="498.15" from="-E11" to="E8"/>
    <trip id="406" depart="499.38" from="-E7" to="E9"/>
    <trip id="407" depart="500.61" from="-E6" to="E5"/>
    <trip id="408" depart="501.84" from="-E11" to="E11"/>
    <trip id="409" depart="503.07" from="-E13" to="E6"/>
    <trip id="410" depart="504.30" from="-E13" to="E11"/>
    <trip id="411" depart="505.53" from="-E14" to="E2"/>
    <trip id="412" depart="506.76" from="-E10" to="E11"/>
    <trip id="413" depart="507.99" from="-E8" to="E11"/>
    <trip id="414" depart="509.22" from="-E7" to="E10"/>
    <trip id="415" depart="510.45" from="-E10" to="E13"/>
    <trip id="416" depart="511.68" from="-E9" to="E10"/>
    <trip id="417" depart="512.91" from="-E6" to="E5"/>
    <trip id="418" depart="514.14" from="-E6" to="E13"/>
    <trip id="419" depart="515.37" from="-E5" to="E11"/>
    <trip id="420" depart="516.60" from="-E5" to="E8"/>
    <trip id="421" depart="517.83" from="-E6" to="E10"/>
    <trip id="422" depart="519.06" from="-E10" to="E11"/>
    <trip id="423" depart="520.29" from="E4" to="E12"/>
    <trip id="424" depart="521.52" from="-E10" to="E5"/>
    <trip id="425" depart="522.75" from="-E12" to="E5"/>
    <trip id="426" depart="523.98" from="-E8" to="E14"/>
    <trip id="427" depart="525.21" from="-E9" to="E13"/>
    <trip id="428" depart="526.44" from="-E11" to="E12"/>
    <trip id="429" depart="527.67" from="-E8" to="E3"/>
    <trip id="430" depart="528.90" from="-E6" to="E6"/>
    <trip id="431" depart="530.13" from="-E13" to="E13"/>
    <trip id="432" depart="531.36" from="-E5" to="E3"/>
    <trip id="433" depart="532.59" from="-E12" to="E7"/>
    <trip id="434" depart="533.82" from="-E13" to="E9"/>
    <trip id="435" depart="535.05" from="-E6" to="E5"/>
    <trip id="436" depart="536.28" from="-E10" to="E7"/>
    <trip id="437" depart="537.51" from="-E8" to="-E0"/>
    <trip id="438" depart="538.74" from="-E7" to="E8"/>
    <trip id="439" depart="539.97" from="-E13" to="-E3"/>
    <trip id="440" depart="541.20" from="-E9" to="E13"/>
    <trip id="441" depart="542.43" from="-E13" to="E12"/>
    <trip id="442" depart="543.66" from="-E7" to="E5"/>
    <trip id="443" depart="544.89" from="-E12" to="E5"/>
    <trip id="444" depart="546.12" from="-E11" to="E13"/>
    <trip id="445" depart="547.35" from="-E13" to="E13"/>
    <trip id="446" depart="548.58" from="-E8" to="E12"/>
    <trip id="447" depart="549.81" from="-E8" to="E9"/>
    <trip id="448" depart="551.04" from="-E14" to="E12"/>
    <trip id="449" depart="552.27" from="-E13" to="E10"/>
    <trip id="450" depart="553.50" from="-E7" to="E9"/>
    <trip id="451" depart="554.73" from="-E14" to="E14"/>
    <trip id="452" depart="555.96" from="-E5" to="E8"/>
    <trip id="453" depart="557.19" from="-E5" to="E8"/>
    <trip id="454" depart="558.42" from="-E6" to="E8"/>
    <trip id="455" depart="559.65" from="-E8" to="E11"/>
    <trip id="456" depart="560.88" from="-E6" to="E12"/>
    <trip id="457" depart="562.11" from="-E6" to="E13"/>
    <trip id="458" depart="563.34" from="-E13" to="E8"/>
    <trip id="459" depart="564.57" from="-E5" to="E10"/>
    <trip id="460" depart="565.80" from="-E11" to="E10"/>
    <trip id="461" depart="567.03" from="-E14" to="E11"/>
    <trip id="462" depart="568.26" from="-E6" to="E14"/>
    <trip id="463" depart="569.49" from="-E10" to="E12"/>
    <trip id="464" depart="570.72" from="-E8" to="E8"/>
    <trip id="465" depart="571.95" from="-E9" to="E12"/>
    <trip id="466" depart="573.18" from="-E7" to="E11"/>
    <trip id="467" depart="574.41" from="-E11" to="E13"/>
    <trip id="468" depart="575.64" from="-E10" to="E8"/>
    <trip id="469" depart="576.87" from="-E5" to="E8"/>
    <trip id="470" depart="578.10" from="-E12" to="E5"/>
    <trip id="471" depart="579.33" from="-E6" to="E8"/>
    <trip id="472" depart="580.56" from="-E14" to="E7"/>
    <trip id="473" depart="581.79" from="-E11" to="E9"/>
    <trip id="474" depart="583.02" from="-E7" to="E6"/>
    <trip id="475" depart="584.25" from="-E7" to="E4"/>
    <trip id="476" depart="585.48" from="-E11" to="E14"/>
    <trip id="477" depart="586.71" from="-E14" to="E11"/>
    <trip id="478" depart="587.94" from="-E12" to="E11"/>
    <trip id="479" depart="589.17" from="-E5" to="E9"/>
    <trip id="480" depart="590.40" from="-E10" to="E9"/>
    <trip id="481" depart="591.63" from="-E10" to="E13"/>
    <trip id="482" depart="592.86" from="-E6" to="E6"/>
    <trip id="483" depart="594.09" from="-E10" to="-E0"/>
    <trip id="484" depart="595.32" from="-E9" to="E7"/>
    <trip id="485" depart="596.55" from="-E6" to="E6"/>
    <trip id="486" depart="597.78" from="-E9" to="E13"/>
    <trip id="487" depart="599.01" from="-E5" to="E6"/>
    <trip id="488" depart="600.24" from="-E8" to="E7"/>
    <trip id="489" depart="601.47" from="-E8" to="E6"/>
    <trip id="490" depart="602.70" from="-E9" to="E12"/>
    <trip id="491" depart="603.93" from="-E8" to="E13"/>
    <trip id="492" depart="605.16" from="E2" to="E13"/>
    <trip id="493" depart="606.39" from="-E10" to="E5"/>
    <trip id="494" depart="607.62" from="-E8" to="E7"/>
    <trip id="495" depart="608.85" from="-E9" to="E6"/>
    <trip id="496" depart="610.08" from="-E8" to="E10"/>
    <trip id="497" depart="611.31" from="-E7" to="E13"/>
    <trip id="498" depart="612.54" from="-E11" to="E13"/>
    <trip id="499" depart="613.77" from="-E6" to="E13"/>
    <trip id="500" depart="615.00" from="E3" to="E13"/>
    <trip id="501" depart="616.23" from="-E5" to="E8"/>
    <trip id="502" depart="617.46" from="E2" to="E6"/>
    <trip id="503" depart="618.69" from="-E8" to="-E3"/>
    <trip id="504" depart="619.92" from="-E14" to="E13"/>
    <trip id="505" depart="621.15" from="-E13" to="E7"/>
    <trip id="506" depart="622.38" from="-E11" to="E6"/>
    <trip id="507" depart="623.61" from="-E14" to="E7"/>
    <trip id="508" depart="624.84" from="-E14" to="E8"/>
    <trip id="509" depart="626.07" from="-E8" to="E8"/>
    <trip id="510" depart="627.30" from="E1" to="E1"/>
    <trip id="511" depart="628.53" from="-E10" to="E6"/>
    <trip id="512" depart="629.76" from="-E12" to="E5"/>
    <trip id="513" depart="630.99" from="-E7" to="E14"/>
    <trip id="514" depart="632.22" from="-E14" to="E9"/>
    <trip id="515" depart="633.45" from="-E7" to="E14"/>
    <trip id="516" depart="634.68" from="-E14" to="E14"/>
    <trip id="517" depart="635.91" from="-E14" to="-E2"/>
    <trip id="518" depart="637.14" from="-E8" to="E10"/>