<?xml version="1.0" encoding="UTF-8"?>

<!-- generated on 2026-04-09 07:16:21.745049 by Eclipse SUMO randomTrips.py v1.26.0.post998
<configuration>
    <net-file value="/home/ekene/Projects/trafix/sumo/map.net.xml"/>
    <output-trip-file value="/home/ekene/Projects/trafix/sumo/training_demand.rou.xml"/>
    <fringe-factor value="10"/>
    <seed value="28075"/>
    <period value="1.11"/>
</configuration>
-->

<routes xmlns:xsi="http://www.w3.org/2001/XMLSchema-instance" xsi:noNamespaceSchemaLocation="http://sumo.dlr.de/xsd/routes_file.xsd">
    <trip id="0" depart="0.00" from="-E7" to="E5"/>
    <trip id="1" depart="1.11" from="-E14" to="E6"/>
    <trip id="2" depart="2.22" from="-E1" to="E8"/>
    <trip id="3" depart="3.33" from="-E8" to="E9"/>
    <trip id="4" depart="4.44" from="-E9" to="E5"/>
    <trip id="5" depart="5.55" from="-E13" to="E13"/>
    <trip id="6" depart="6.66" from="-E8" to="E2"/>
    <trip id="7" depart="7.77" from="-E13" to="E9"/>
    <trip id="8" depart="8.88" from="-E7" to="E8"/>
    <trip id="9" depart="9.99" from="-E7" to="E13"/>
    <trip id="10" depart="11.10" from="-E9" to="-E1"/>
    <trip id="11" depart="12.21" from="-E14" to="E8"/>
    <trip id="12" depart="13.32" from="-E13" to="E5"/>
    <trip id="13" depart="14.43" from="-E11" to="E11"/>
    <trip id="14" depart="15.54" from="-E3" to="E13"/>
    <trip id="15" depart="16.65" from="-E10" to="E12"/>
    <trip id="16" depart="17.76" from="-E7" to="E7"/>
    <trip id="17" depart="18.87" from="-E6" to="E5"/>
    <trip id="18" depart="19.98" from="-E11" to="E13"/>
    <trip id="19" depart="21.09" from="-E10" to="E12"/>
    <trip id="20" depart="22.20" from="-E7" to="E8"/>
    <trip id="21" depart="23.31" from="-E11" to="-E2"/>
    <trip id="22" depart="24.42" from="-E12" to="E5"/>
    <trip id="23" depart="25.53" from="-E5" to="E13"/>
    <trip id="24" depart="26.64" from="-E12" to="E12"/>
    <trip id="25" depart="27.75" from="-E7" to="-E0"/>
    <trip id="26" depart="28.86" from="-E10" to="E12"/>
    <trip id="27" depart="29.97" from="-E6" to="E8"/>
    <trip id="28" depart="31.08" from="-E14" to="E10"/>
    <trip id="29" depart="32.19" from="-E10" to="E9"/>
    <trip id="30" depart="33.30" from="-E12" to="E7"/>
    <trip id="31" depart="34.41" from="-E5" to="E7"/>
    <trip id="32" depart="35.52" from="-E11" to="E9"/>
    <trip id="33" depart="36.63" from="-E9" to="E10"/>
    <trip id="34" depart="37.74" from="-E7" to="E6"/>
    <trip id="35" depart="38.85" from="-E5" to="E10"/>
    <trip id="36" depart="39.96" from="-E7" to="E11"/>
    <trip id="37" depart="41.07" from="-E3" to="E6"/>
    <trip id="38" depart="42.18" from="-E7" to="E12"/>
    <trip id="39" depart="43.29" from="-E6" to="E5"/>
    <trip id="40" depart="44.40" from="-E8" to="E9"/>
    <trip id="41" depart="45.51" from="-E6" to="E11"/>
    <trip id="42" depart="46.62" from="-E11" to="E8"/>
    <trip id="43" depart="47.73" from="-E12" to="E12"/>
    <trip id="44" depart="48.84" from="-E6" to="E7"/>
    <trip id="45" depart="49.95" from="E3" to="E8"/>
    <trip id="46" depart="51.06" from="-E6" to="E12"/>
    <trip id="47" depart="52.17" from="-E11" to="E10"/>
    <trip id="48" depart="53.28" from="-E8" to="E7"/>
    <trip id="49" depart="54.39" from="-E7" to="E8"/>
    <trip id="50" depart="55.50" from="-E6" to="E10"/>
    <trip id="51" depart="56.61" from="-E10" to="E12"/>
    <trip id="52" depart="57.72" from="-E6" to="E5"/>
    <trip id="53" depart="58.83" from="-E5" to="E6"/>
    <trip id="54" depart="59.94" from="-E6" to="E12"/>
    <trip id="55" depart="61.05" from="-E14" to="-E3"/>
    <trip id="56" depart="62.16" from="-E13" to="E9"/>
    <trip id="57" depart="63.27" from="E2" to="E14"/>
    <trip id="58" depart="64.38" from="-E10" to="E6"/>
    <trip id="59" depart="65.49" from="-E6" to="E12"/>
    <trip id="60" depart="66.60" from="-E4" to="E13"/>
    <trip id="61" depart="67.71" from="-E8" to="E8"/>
    <trip id="62" depart="68.82" from="-E10" to="E8"/>
    <trip id="63" depart="69.93" from="-E14" to="E7"/>
    <trip id="64" depart="71.04" from="-E12" to="E11"/>
    <trip id="65" depart="72.15" from="-E10" to="E11"/>
    <trip id="66" depart="73.26" from="-E9" to="E12"/>
    <trip id="67" depart="74.37" from="-E9" to="E7"/>
    <trip id="68" depart="75.48" from="-E6" to="E14"/>
    <trip id="69" depart="76.59" from="-E9" to="E12"/>
    <trip id="70" depart="77.70" from="-E6" to="E7"/>
    <trip id="71" depart="78.81" from="-E13" to="E8"/>
    <trip id="72" depart="79.92" from="-E13" to="E3"/>
    <trip id="73" depart="81.03" from="-E10" to="E7"/>
    <trip id="74" depart="82.14" from="-E7" to="E13"/>
    <trip id="75" depart="83.25" from="-E4" to="E5"/>
    <trip id="76" depart="84.36" from="-E5" to="E10"/>
    <trip id="77" depart="85.47" from="-E9" to="E8"/>
    <trip id="78" depart="86.58" from="-E11" to="-E0"/>
    <trip id="79" depart="87.69" from="-E6" to="E7"/>
    <trip id="80" depart="88.80" from="E2" to="E10"/>
    <trip id="81" depart="89.91" from="-E12" to="E13"/>
    <trip id="82" depart="91.02" from="-E6" to="E13"/>
    <trip id="83" depart="92.13" from="-E11" to="E9"/>
    <trip id="84" depart="93.24" from="-E14" to="E11"/>
    <trip id="85" depart="94.35" from="-E11" to="E6"/>
    <trip id="86" depart="95.46" from="-E8" to="E6"/>
    <trip id="87" depart="96.57" from="-E5" to="E7"/>
    <trip id="88" depart="97.68" from="-E8" to="E12"/>
    <trip id="89" depart="98.79" from="-E5" to="E6"/>
    <trip id="90" depart="99.90" from="-E12" to="E8"/>
    <trip id="91" depart="101.01" from="E2" to="E8"/>
    <trip id="92" depart="102.12" from="-E11" to="E9"/>
    <trip id="93" depart="103.23" from="-E2" to="E6"/>
    <trip id="94" depart="104.34" from="-E6" to="E7"/>
    <trip id="95" depart="105.45" from="-E9" to="E13"/>
    <trip id="96" depart="106.56" from="-E14" to="E3"/>
    <trip id="97" depart="107.67" from="-E8" to="E7"/>
    <trip id="98" depart="108.78" from="-E9" to="E13"/>
    <trip id="99" depart="109.89" from="-E13" to="E10"/>
    <trip id="100" depart="111.00" from="-E13" to="E9"/>
    <trip id="101" depart="112.11" from="-E12" to="E13"/>
    <trip id="102" depart="113.22" from="-E9" to="E9"/>
    <trip id="103" depart="114.33" from="-E10" to="E10"/>
    <trip id="104" depart="115.44" from="-E8" to="E13"/>
    <trip id="105" depart="116.55" from="-E14" to="E12"/>
    <trip id="106" depart="117.66" from="-E11" to="E5"/>
    <trip id="107" depart="118.77" from="-E7" to="E14"/>
    <trip id="108" depart="119.88" from="-E14" to="E14"/>
    <trip id="109" depart="120.99" from="-E13" to="E12"/>
    <trip id="110" depart="122.10" from="-E7" to="E9"/>
    <trip id="111" depart="123.21" from="-E14" to="E6"/>
    <trip id="112" depart="124.32" from="-E14" to="E13"/>
    <trip id="113" depart="125.43" from="-E8" to="E11"/>
    <trip id="114" depart="126.54" from="-E11" to="E13"/>
    <trip id="115" depart="127.65" from="-E7" to="E12"/>
    <trip id="116" depart="128.76" from="-E9" to="E10"/>
    <trip id="117" depart="129.87" from="-E5" to="E7"/>
    <trip id="118" depart="130.98" from="E3" to="E7"/>
    <trip id="119" depart="132.09" from="-E13" to="E10"/>
    <trip id="120" depart="133.20" from="-E7" to="E11"/>
    <trip id="121" depart="134.31" from="-E14" to="E13"/>
    <trip id="122" depart="135.42" from="-E13" to="E12"/>
    <trip id="123" depart="136.53" from="-E14" to="E14"/>
    <trip id="124" depart="137.64" from="-E14" to="E8"/>
    <trip id="125" depart="138.75" from="-E6" to="E5"/>
    <trip id="126" depart="139.86" from="-E6" to="E9"/>
    <trip id="127" depart="140.97" from="-E8" to="-E0"/>
    <trip id="128" depart="142.08" from="-E8" to="E13"/>
    <trip id="129" depart="143.19" from="-E10" to="E7"/>
    <trip id="130" depart="144.30" from="-E11" to="E13"/>
    <trip id="131" depart="145.41" from="-E0" to="E6"/>
    <trip id="132" depart="146.52" from="-E8" to="E12"/>
    <trip id="133" depart="147.63" from="-E13" to="E5"/>
    <trip id="134" depart="148.74" from="-E10" to="E5"/>
    <trip id="135" depart="149.85" from="-E11" to="E14"/>
    <trip id="136" depart="150.96" from="-E10" to="E5"/>
    <trip id="137" depart="152.07" from="-E0" to="E6"/>
    <trip id="138" depart="153.18" from="-E10" to="E8"/>
    <trip id="139" depart="154.29" from="-E5" to="E6"/>
    <trip id="140" depart="155.40" from="-E13" to="E7"/>
    <trip id="141" depart="156.51" from="-E12" to="E10"/>
    <trip id="142" depart="157.62" from="-E7" to="E14"/>
    <trip id="143" depart="158.73" from="-E14" to="E6"/>
    <trip id="144" depart="159.84" from="-E14" to="E7"/>
    <trip id="145" depart="160.95" from="-E10" to="E11"/>
    <trip id="146" depart="162.06" from="-E13" to="E5"/>
    <trip id="147" depart="163.17" from="-E10" to="E10"/>
    <trip id="148" depart="164.28" from="-E6" to="E14"/>
    <trip id="149" depart="165.39" from="-E10" to="E9"/>
    <trip id="150" depart="166.50" from="E3" to="E9"/>
    <trip id="151" depart="167.61" from="-E8" to="E7"/>
    <trip id="152" depart="168.72" from="-E9" to="E11"/>
    <trip id="153" depart="169.83" from="-E2" to="E10"/>
    <trip id="154" depart="170.94" from="-E7" to="-E2"/>
    <trip id="155" depart="172.05" from="-E5" to="E2"/>
    <trip id="156" depart="173.16" from="-E14" to="E14"/>
    <trip id="157" depart="174.27" from="-E9" to="E11"/>
    <trip id="158" depart="175.38" from="-E9" to="E11"/>
    <trip id="159" depart="176.49" from="-E9" to="E7"/>
    <trip id="160" depart="177.60" from="-E4" to="E14"/>
    <trip id="161" depart="178.71" from="-E13" to="E5"/>
    <trip id="162" depart="179.82" from="-E10" to="E9"/>
    <trip id="163" depart="180.93" from="-E6" to="E14"/>
    <trip id="164" depart="182.04" from="-E9" to="E14"/>
    <trip id="165" depart="183.15" from="-E7" to="E11"/>
    <trip id="166" depart="184.26" from="-E6" to="E9"/>
    <trip id="167" depart="185.37" from="-E14" to="E7"/>
    <trip id="168" depart="186.48" from="-E12" to="E7"/>
    <trip id="169" depart="187.59" from="-E2" to="E6"/>
    <trip id="170" depart="188.70" from="-E12" to="E10"/>
    <trip id="171" depart="189.81" from="-E10" to="E7"/>
    <trip id="172" depart="190.92" from="-E11" to="E12"/>
    <trip id="173" depart="192.03" from="-E6" to="E13"/>
    <trip id="174" depart="193.14" from="E4" to="E13"/>
    <trip id="175" depart="194.25" from="-E14" to="-E1"/>
    <trip id="176" depart="195.36" from="-E3" to="E5"/>
    <trip id="177" depart="196.47" from="-E8" to="E14"/>
    <trip id="178" depart="197.58" from="-E11" to="E12"/>
    <trip id="179" depart="198.69" from="-E6" to="E5"/>
    <trip id="180" depart="199.80" from="-E13" to="E14"/>
    <trip id="181" depart="200.91" from="-E9" to="E10"/>
    <trip id="182" depart="202.02" from="-E14" to="E6"/>
    <trip id="183" depart="203.13" from="-E13" to="-E3"/>
    <trip id="184" depart="204.24" from="-E8" to="E8"/>
    <trip id="185" depart="205.35" from="-E9" to="E8"/>
    <trip id="186" depart="206.46" from="-E5" to="E5"/>
    <trip id="187" depart="207.57" from="-E4" to="E0"/>
    <trip id="188" depart="208.68" from="-E5" to="E7"/>
    <trip id="189" depart="209.79" from="-E8" to="E6"/>
    <trip id="190" depart="210.90" from="-E13" to="E7"/>
    <trip id="191" depart="212.01" from="-E13" to="E11"/>
    <trip id="192" depart="213.12" from="-E11" to="E13"/>
    <trip id="193" depart="214.23" from="-E12" to="-E1"/>
    <trip id="194" depart="215.34" from="-E7" to="E12"/>
    <trip id="195" depart="216.45" from="-E13" to="E10"/>
    <trip id="196" depart="217.56" from="-E11" to="E12"/>
    <trip id="197" depart="218.67" from="-E12" to="E14"/>
    <trip id="198" depart="219.78" from="-E9" to="E13"/>
    <trip id="199" depart="220.89" from="-E11" to="E12"/>
    <trip id="200" depart="222.00" from="-E11" to="E1"/>
    <trip id="201" depart="223.11" from="-E5" to="E1"/>
    <trip id="202" depart="224.22" from="-E6" to="E12"/>
    <trip id="203" depart="225.33" from="-E1" to="E8"/>
    <trip id="204" depart="226.44" from="-E11" to="E5"/>
    <trip id="205" depart="227.55" from="-E12" to="E7"/>
    <trip id="206" depart="228.66" from="-E6" to="E8"/>
    <trip id="207" depart="229.77" from="-E14" to="E13"/>
    <trip id="208" depart="230.88" from="-E10" to="E14"/>
    <trip id="209" depart="231.99" from="-E14" to="E9"/>
    <trip id="210" depart="233.10" from="-E14" to="E13"/>
    <trip id="211" depart="234.21" from="-E6" to="E14"/>
    <trip id="212" depart="235.32" from="-E6" to="E0"/>
    <trip id="213" depart="236.43" from="-E11" to="E6"/>
    <trip id="214" depart="237.54" from="-E13" to="E5"/>
    <trip id="215" depart="238.65" from="-E11" to="E12"/>
    <trip id="216" depart="239.76" from="-E6" to="E7"/>
    <trip id="217" depart="240.87" from="-E10" to="E13"/>
    <trip id="218" depart="241.98" from="-E9" to="E10"/>
    <trip id="219" depart="243.09" from="-E5" to="E6"/>
    <trip id="220" depart="244.20" from="-E3" to="E8"/>
    <trip id="221" depart="245.31" from="-E7" to="E12"/>
    <trip id="222" depart="246.42" from="-E7" to="E5"/>
    <trip id="223" depart="247.53" from="-E6" to="E2"/>
    <trip id="224" depart="248.64" from="-E5" to="E9"/>
    <trip id="225" depart="249.75" from="-E8" to="E9"/>
    <trip id="226" depart="250.86" from="-E13" to="-E2"/>
    <trip id="227" depart="251.97" from="-E5" to="E8"/>
    <trip id="228" depart="253.08" from="-E10" to="E5"/>
    <trip id="229" depart="254.19" from="-E13" to="E13"/>
    <trip id="230" depart="255.30" from="-E8" to="E8"/>
    <trip id="231" depart="256.41" from="-E6" to="E6"/>
    <trip id="232" depart="257.52" from="-E10" to="E12"/>
    <trip id="233" depart="258.63" from="-E10" to="E5"/>
    <trip id="234" depart="259.74" from="-E12" to="E14"/>
    <trip id="235" depart="260.85" from="-E8" to="E9"/>
    <trip id="236" depart="261.96" from="-E13" to="E12"/>
    <trip id="237" depart="263.07" from="-E14" to="E9"/>
    <trip id="238" depart="264.18" from="-E13" to="E13"/>
    <trip id="239" depart="265.29" from="-E13" to="E13"/>
    <trip id="240" depart="266.40" from="-E13" to="E14"/>
    <trip id="241" depart="267.51" from="-E7" to="E5"/>
    <trip id="242" depart="268.62" from="-E0" to="E6"/>
    <trip id="243" depart="269.73" from="-E9" to="E9"/>
    <trip id="244" depart="270.84" from="-E14" to="E13"/>
    <trip id="245" depart="271.95" from="E2" to="-E0"/>
    <trip id="246" depart="273.06" from="-E8" to="E9"/>
    <trip id="247" depart="274.17" from="-E14" to="E9"/>
    <trip id="248" depart="275.28" from="-E9" to="E13"/>
    <trip id="249" depart="276.39" from="-E5" to="E7"/>
    <trip id="250" depart="277.50" from="-E12" to="E5"/>
    <trip id="251" depart="278.61" from="-E5" to="E12"/>
    <trip id="252" depart="279.72" from="-E10" to="E7"/>
    <trip id="253" depart="280.83" from="-E7" to="E10"/>
    <trip id="254" depart="281.94" from="-E9" to="E14"/>
    <trip id="255" depart="283.05" from="-E9" to="E9"/>
    <trip id="256" depart="284.16" from="-E3" to="E6"/>
    <trip id="257" depart="285.27" from="-E7" to="E10"/>
    <trip id="258" depart="286.38" from="-E11" to="E9"/>
    <trip id="259" depart="287.49" from="E3" to="E12"/>
    <trip id="260" depart="288.60" from="-E13" to="E5"/>
    <trip id="261" depart="289.71" from="-E6" to="E9"/>
    <trip id="262" depart="290.82" from="-E7" to="E11"/>
    <trip id="263" depart="291.93" from="-E9" to="E9"/>
    <trip id="264" depart="293.04" from="-E14" to="E1"/>
    <trip id="265" depart="294.15" from="-E9" to="E2"/>
    <trip id="266" depart="295.26" from="-E9" to="E10"/>
    <trip id="267" depart="296.37" from="-E4" to="E7"/>
    <trip id="268" depart="297.48" from="-E11" to="E6"/>
    <trip id="269" depart="298.59" from="-E10" to="E8"/>
    <trip id="270" depart="299.70" from="-E12" to="E8"/>
    <trip id="271" depart="300.81" from="-E14" to="E11"/>
    <trip id="272" depart="301.92" from="-E7" to="E12"/>
    <trip id="273" depart="303.03" from="-E7" to="E14"/>
    <trip id="274" depart="304.14" from="-E10" to="E5"/>
    <trip id="275" depart="305.25" from="-E13" to="E13"/>
    <trip id="276" depart="306.36" from="-E9" to="E9"/>
    <trip id="277" depart="307.47" from="-E12" to="E11"/>
    <trip id="278" depart="308.58" from="-E10" to="E6"/>
    <trip id="279" depart="309.69" from="-E8" to="E12"/>
    <trip id="280" depart="310.80" from="-E12" to="E13"/>
    <trip id="281" depart="311.91" from="-E11" to="E10"/>
    <trip id="282" depart="313.02" from="-E8" to="E14"/>
    <trip id="283" depart="314.13" from="-E11" to="E14"/>
    <trip id="284" depart="315.24" from="-E9" to="E4"/>
    <trip id="285" depart="316.35" from="-E14" to="E11"/>
    <trip id="286" depart="317.46" from="-E4" to="-E3"/>
    <trip id="287" depart="318.57" from="-E1" to="E8"/>
    <trip id="288" depart="319.68" from="-E6" to="E10"/>
    <trip id="289" depart="320.79" from="-E6" to="E11"/>
    <trip id="290" depart="321.90" from="-E5" to="E14"/>
    <trip id="291" depart="323.01" from="-E14" to="E13"/>
    <trip id="292" depart="324.12" from="-E12" to="E11"/>
    <trip id="293" depart="325.23" from="-E13" to="E14"/>
    <trip id="294" depart="326.34" from="-E7" to="E1"/>
    <trip id="295" depart="327.45" from="-E8" to="E13"/>
    <trip id="296" depart="328.56" from="-E12" to="E9"/>
    <trip id="297" depart="329.67" from="-E8" to="-E2"/>
    <trip id="298" depart="330.78" from="-E3" to="E10"/>
    <trip id="299" depart="331.89" from="-E9" to="E13"/>
    <trip id="300" depart="333.00" from="-E6" to="E5"/>
    <trip id="301" depart="334.11" from="-E9" to="E2"/>
    <trip id="302" depart="335.22" from="-E10" to="E8"/>
    <trip id="303" depart="336.33" from="-E9" to="E8"/>
    <trip id="304" depart="337.44" from="-E4" to="E0"/>
    <trip id="305" depart="338.55" from="-E7" to="E9"/>
    <trip id="306" depart="339.66" from="-E12" to="E13"/>
    <trip id="307" depart="340.77" from="-E5" to="E8"/>
    <trip id="308" depart="341.88" from="-E9" to="E14"/>
    <trip id="309" depart="342.99" from="-E9" to="E1"/>
    <trip id="310" depart="344.10" from="-E6" to="E7"/>
    <trip id="311" depart="345.21" from="-E13" to="E14"/>
    <trip id="312" depart="346.32" from="-E14" to="E14"/>
    <trip id="313" depart="347.43" from="-E11" to="-E3"/>
    <trip id="314" depart="348.54" from="-E6" to="E13"/>
    <trip id="315" depart="349.65" from="-E5" to="E5"/>
    <trip id="316" depart="350.76" from="-E2" to="E8"/>
    <trip id="317" depart="351.87" from="-E14" to="E7"/>
    <trip id="318" depart="352.98" from="-E9" to="E9"/>
    <trip id="319" depart="354.09" from="-E5" to="E11"/>
    <trip id="320" depart="355.20" from="-E8" to="E3"/>
    <trip id="321" depart="356.31" from="-E2" to="E12"/>
    <trip id="322" depart="357.42" from="-E8" to="E5"/>
    <trip id="323" depart="358.53" from="-E6" to="E10"/>
    <trip id="324" depart="359.64" from="-E5" to="E12"/>
    <trip id="325" depart="360.75" from="-E9" to="E11"/>
    <trip id="326" depart="361.86" from="-E5" to="E11"/>
    <trip id="327" depart="362.97" from="-E9" to="E6"/>
    <trip id="328" depart="364.08" from="-E9" to="E8"/>
    <trip id="329" depart="365.19" from="-E5" to="E5"/>
    <trip id="330" depart="366.30" from="-E5" to="E11"/>
    <trip id="331" depart="367.41" from="-E14" to="E14"/>
    <trip id="332" depart="368.52" from="-E12" to="E7"/>
    <trip id="333" depart="369.63" from="-E14" to="E9"/>
    <trip id="334" depart="370.74" from="-E2" to="E13"/>
    <trip id="335" depart="371.85" from="-E11" to="-E0"/>
    <trip id="336" depart="372.96" from="-E8" to="E13"/>
    <trip id="337" depart="374.07" from="-E8" to="E5"/>
    <trip id="338" depart="375.18" from="-E10" to="E6"/>
    <trip id="339" depart="376.29" from="-E5" to="E12"/>
    <trip id="340" depart="377.40" from="-E11" to="E13"/>
    <trip id="341" depart="378.51" from="-E5" to="E8"/>
    <trip id="342" depart="379.62" from="-E6" to="E6"/>
    <trip id="343" depart="380.73" from="-E13" to="-E0"/>
    <trip id="344" depart="381.84" from="-E5" to="E10"/>
    <trip id="345" depart="382.95" from="-E14" to="E7"/>
    <trip id="346" depart="384.06" from="E1" to="E6"/>
    <trip id="347" depart="385.17" from="-E2" to="E8"/>
    <trip id="348" depart="386.28" from="-E12" to="E6"/>
    <trip id="349" depart="387.39" from="-E12" to="E11"/>
    <trip id="350" depart="388.50" from="-E10" to="E8"/>
    <trip id="351" depart="389.61" from="-E8" to="E5"/>
    <trip id="352" depart="390.72" from="-E6" to="E7"/>
    <trip id="353" depart="391.83" from="-E13" to="E9"/>
    <trip id="354" depart="392.94" from="-E7" to="E9"/>
    <trip id="355" depart="394.05" from="-E13" to="E14"/>
    <trip id="356" depart="395.16" from="-E7" to="E8"/>
    <trip id="357" depart="396.27" from="-E0" to="E9"/>
    <trip id="358" depart="397.38" from="-E11" to="E14"/>
    <trip id="359" depart="398.49" from="-E6" to="E9"/>
    <trip id="360" depart="399.60" from="-E5" to="E13"/>
    <trip id="361" depart="400.71" from="-E14" to="E5"/>
    <trip id="362" depart="401.82" from="-E11" to="E5"/>
    <trip id="363" depart="402.93" from="-E10" to="E6"/>
    <trip id="364" depart="404.04" from="-E5" to="E9"/>
    <trip id="365" depart="405.15" from="-E6" to="E10"/>
    <trip id="366" depart="406.26" from="-E12" to="E6"/>
    <trip id="367" depart="407.37" from="-E10" to="E11"/>
    <trip id="368" depart="408.48" from="-E7" to="E5"/>
    <trip id="369" depart="409.59" from="-E10" to="E9"/>
    <trip id="370" depart="410.70" from="-E5" to="E13"/>
    <trip id="371" depart="411.81" from="-E7" to="E5"/>
    <trip id="372" depart="412.92" from="-E4" to="E9"/>
    <trip id="373" depart="414.03" from="-E12" to="E1"/>
    <trip id="374" depart="415.14" from="-E10" to="E7"/>
    <trip id="375" depart="416.25" from="-E9" to="E11"/>
    <trip id="376" depart="417.36" from="-E10" to="E10"/>
    <trip id="377" depart="418.47" from="-E13" to="E11"/>
    <trip id="378" depart="419.58" from="-E10" to="E14"/>
    <trip id="379" depart="420.69" from="-E9" to="-E3"/>
    <trip id="380" depart="421.80" from="-E5" to="E14"/>
    <trip id="381" depart="422.91" from="-E13" to="E12"/>
    <trip id="382" depart="424.02" from="-E11" to="E14"/>
    <trip id="383" depart="425.13" from="-E11" to="E9"/>
    <trip id="384" depart="426.24" from="-E9" to="E8"/>
    <trip id="385" depart="427.35" from="-E6" to="E11"/>
    <trip id="386" depart="428.46" from="-E9" to="E6"/>
    <trip id="387" depart="429.57" from="-E11" to="E10"/>
    <trip id="388" depart="430.68" from="-E8" to="E13"/>
    <trip id="389" depart="431.79" from="-E12" to="E8"/>
    <trip id="390" depart="432.90" from="-E7" to="E11"/>
    <trip id="391" depart="434.01" from="-E6" to="E10"/>
    <trip id="392" depart="435.12" from="-E7" to="E5"/>
    <trip id="393" depart="436.23" from="-E10" to="E5"/>
    <trip id="394" depart="437.34" from="-E9" to="E6"/>
    <trip id="395" depart="438.45" from="-E5" to="E14"/>
    <trip id="396" depart="439.56" from="-E12" to="E8"/>
    <trip id="397" depart="440.67" from="-E5" to="E5"/>
    <trip id="398" depart="441.78" from="-E12" to="E6"/>
    <trip id="399" depart="442.89" from="-E10" to="E12"/>
    <trip id="400" depart="444.00" from="-E10" to="E7"/>
    <trip id="401" depart="445.11" from="-E7" to="-E1"/>
    <trip id="402" depart="446.22" from="-E7" to="E12"/>
    <trip id="403" depart="447.33" from="-E7" to="E13"/>
    <trip id="404" depart="448.44" from="-E11" to="E3"/>
    <trip id="405" depart="449.55" from="-E7" to="E11"/>
    <trip id="406" depart="450.66" from="-E11" to="E8"/>
    <trip id="407" depart="451.77" from="-E8" to="E8"/>
    <trip id="408" depart="452.88" from="-E14" to="E13"/>
    <trip id="409" depart="453.99" from="-E7" to="E10"/>
    <trip id="410" depart="455.10" from="-E12" to="E7"/>
    <trip id="411" depart="456.21" from="-E7" to="E14"/>
    <trip id="412" depart="457.32" from="-E0" to="E13"/>
    <trip id="413" depart="458.43" from="-E6" to="E5"/>
    <trip id="414" depart="459.54" from="-E14" to="E12"/>
    <trip id="415" depart="460.65" from="-E7" to="E12"/>
    <trip id="416" depart="461.76" from="-E3" to="E14"/>
    <trip id="417" depart="462.87" from="-E10" to="E12"/>
    <trip id="418" depart="463.98" from="-E10" to="E14"/>
    <trip id="419" depart="465.09" from="-E8" to="E5"/>
    <trip id="420" depart="466.20" from="-E11" to="E7"/>
    <trip id="421" depart="467.31" from="-E12" to="E5"/>
    <trip id="422" depart="468.42" from="-E11" to="E10"/>
    <trip id="423" depart="469.53" from="-E5" to="E10"/>
    <trip id="424" depart="470.64" from="-E6" to="E6"/>
    <trip id="425" depart="471.75" from="-E9" to="E10"/>
    <trip id="426" depart="472.86" from="-E5" to="E6"/>
    <trip id="427" depart="473.97" from="-E0" to="E13"/>
    <trip id="428" depart="475.08" from="-E13" to="E9"/>
    <trip id="429" depart="476.19" from="-E7" to="E10"/>
    <trip id="430" depart="477.30" from="-E11" to="E10"/>
    <trip id="431" depart="478.41" from="-E12" to="-E2"/>
    <trip id="432" depart="479.52" from="-E7" to="E7"/>
    <trip id="433" depart="480.63" from="-E9" to="E14"/>
    <trip id="434" depart="481.74" from="-E5" to="E7"/>
    <trip id="435" depart="482.85" from="-E6" to="E14"/>
    <trip id="436" depart="483.96" from="-E11" to="E7"/>
    <trip id="437" depart="485.07" from="-E6" to="E11"/>
    <trip id="438" depart="486.18" from="-E12" to="E9"/>
    <trip id="439" depart="487.29" from="-E9" to="E12"/>
    <trip id="440" depart="488.40" from="-E10" to="E14"/>
    <trip id="441" depart="489.51" from="-E7" to="E12"/>
    <trip id="442" depart="490.62" from="-E12" to="-E4"/>
    <trip id="443" depart="491.73" from="-E10" to="E13"/>
    <trip id="444" depart="492.84" from="-E8" to="E7"/>
    <trip id="445" depart="493.95" from="-E1" to="E6"/>
    <trip id="446" depart="495.06" from="-E11" to="E9"/>
    <trip id="447" depart="496.17" from="-E6" to="E13"/>
    <trip id="448" depart="497.28" from="-E10" to="-E0"/>
    <trip id="449" depart="498.39" from="-E14" to="E11"/>
    <trip id="450" depart="499.50" from="-E5" to="E10"/>
    <trip id="451" depart="500.61" from="-E14" to="E7"/>
    <trip id="452" depart="501.72" from="-E12" to="E5"/>
    <trip id="453" depart="502.83" from="-E9" to="E14"/>
    <trip id="454" depart="503.94" from="-E14" to="E10"/>
    <trip id="455" depart="505.05" from="-E12" to="E2"/>
    <trip id="456" depart="506.16" from="-E14" to="E6"/>
    <trip id="457" depart="507.27" from="-E12" to="E10"/>
    <trip id="458" depart="508.38" from="E1" to="E12"/>
    <trip id="459" depart="509.49" from="-E11" to="E7"/>
    <trip id="460" depart="510.60" from="-E12" to="E12"/>
    <trip id="461" depart="511.71" from="-E12" to="E5"/>
    <trip id="462" depart="512.82" from="-E5" to="E6"/>
    <trip id="463" depart="513.93" from="-E1" to="E7"/>
    <trip id="464" depart="515.04" from="-E8" to="E9"/>
    <trip id="465" depart="516.15" from="-E10" to="E9"/>
    <trip id="466" depart="517.26" from="-E5" to="E6"/>
    <trip id="467" depart="518.37" from="-E8" to="E7"/>
    <trip id="468" depart="519.48" from="-E5" to="E8"/>
    <trip id="469" depart="520.59" from="-E4" to="E14"/>
    <trip id="470" depart="521.70" from="-E12" to="E6"/>
    <trip id="471" depart="522.81" from="-E14" to="E11"/>
    <trip id="472" depart="523.92" from="-E9" to="E5"/>
    <trip id="473" depart="525.03" from="-E5" to="E9"/>
    <trip id="474" depart="526.14" from="-E13" to="E3"/>
    <trip id="475" depart="527.25" from="-E14" to="E4"/>
    <trip id="476" depart="528.36" from="-E5" to="E10"/>
    <trip id="477" depart="529.47" from="-E11" to="E6"/>
    <trip id="478" depart="530.58" from="-E7" to="E6"/>
    <trip id="479" depart="531.69" from="-E12" to="E7"/>
    <trip id="480" depart="532.80" from="-E12" to="E11"/>
    <trip id="481" depart="533.91" from="-E4" to="E6"/>
    <trip id="482" depart="535.02" from="-E5" to="E5"/>
    <trip id="483" depart="536.13" from="-E7" to="E10"/>
    <trip id="484" depart="537.24" from="-E9" to="E5"/>
    <trip id="485" depart="538.35" from="-E7" to="E12"/>
    <trip id="486" depart="539.46" from="-E10" to="E13"/>
    <trip id="487" depart="540.57" from="-E8" to="E8"/>
    <trip id="488" depart="541.68" from="-E9" to="E13"/>
    <trip id="489" depart="542.79" from="-E9" to="E6"/>
    <trip id="490" depart="543.90" from="-E14" to="E13"/>
    <trip id="491" depart="545.01" from="-E2" to="E10"/>
    <trip id="492" depart="546.12" from="-E13" to="E11"/>
    <trip id="493" depart="547.23" from="-E6" to="E12"/>
    <trip id="494" depart="548.34" from="-E2" to="E13"/>
    <trip id="495" depart="549.45" from="-E11" to="E7"/>
    <trip id="496" depart="550.56" from="-E13" to="E14"/>
    <trip id="497" depart="551.67" from="-E11" to="E5"/>
    <trip id="498" depart="552.78" from="-E9" to="E12"/>
    <trip id="499" depart="553.89" from="-E12" to="E13"/>
    <trip id="500" depart="555.00" from="-E5" to="E5"/>
    <trip id="501" depart="556.11" from="-E13" to="-E1"/>
    <trip id="502" depart="557.22" from="-E8" to="E7"/>
    <trip id="503" depart="558.33" from="E0" to="E9"/>
    <trip id="504" depart="559.44" from="-E8" to="E9"/>
    <trip id="505" depart="560.55" from="-E11" to="E9"/>
    <trip id="506" depart="561.66" from="-E11" to="E12"/>
    <trip id="507" depart="562.77" from="-E7" to="E8"/>
    <trip id="508" depart="563.88" from="-E14" to="E5"/>
    <trip id="509" depart="564.99" from="-E7" to="E14"/>
    <trip id="510" depart="566.10" from="-E14" to="E5"/>
    <trip id="511" depart="567.21" from="-E10" to="E7"/>
    <trip id="512" depart="568.32" from="E3" to="E6"/>
    <trip id="513" depart="569.43" from="-E12" to="E10"/>
    <trip id="514" depart="570.54" from="-E11" to="E6"/>
    <trip id="515" depart="571.65" from="E2" to="E10"/>
    <trip id="516" depart="572.76" from="-E9" to="E7"/>
    <trip id="517" depart="573.87" from="-E11" to="E8"/>
    <trip id="518" depart="574.98" from="-E5" to="E10"/>
    <trip id="519" depart="576.09" from="-E7" to="E8"/>
    <trip id="520" depart="577.20" from="-E12" to="E7"/>