<?xml version="1.0" encoding="UTF-8"?>
<routes xmlns:xsi="http://www.w3.org/2001/XMLSchema-instance" xsi:noNamespaceSchemaLocation="http://sumo.dlr.de/xsd/routes_file.xsd">
    <vType id="car" accel="2.6" decel="4.5" sigma="0.5" length="5" minGap="2.5" maxSpeed="50"/>
    <flow id="f_E10_E5_0" from="-E10" to="E5" begin="0" end="1800" vehsPerHour="71.0" departLane="best" departSpeed="max"/>
    <flow id="f_E10_E7_1" from="-E10" to="E7" begin="0" end="1800" vehsPerHour="71.0" departLane="best" departSpeed="max"/>
    <flow id="f_E10_E9_2" from="-E10" to="E9" begin="0" end="1800" vehsPerHour="71.0" departLane="best" departSpeed="max"/>
    <flow id="f_E11_E5_3" from="-E11" to="E5" begin="0" end="1800" vehsPerHour="71.0" departLane="best" departSpeed="max"/>
    <flow id="f_E11_E8_4" from="-E11" to="E8" begin="0" end="1800" vehsPerHour="71.0" departLane="best" departSpeed="max"/>
    <flow id="f_E11_E9_5" from="-E11" to="E9" begin="0" end="1800" vehsPerHour="71.0" departLane="best" departSpeed="max"/>
    <flow id="f_E12_E5_6" from="-E12" to="E5" begin="0" end="1800" vehsPerHour="71.0" departLane="best" departSpeed="max"/>
    <flow id="f_E12_E7_7" from="-E12" to="E7" begin="0" end="1800" vehsPerHour="71.0" departLane="best" departSpeed="max"/>
    <flow id="f_E12_E9_8" from="-E12" to="E9" begin="0" end="1800" vehsPerHour="71.0" departLane="best" departSpeed="max"/>
    <flow id="f_E13_E6_9" from="-E13" to="E6" begin="0" end="1800" vehsPerHour="71.0" departLane="best" departSpeed="max"/>
    <flow id="f_E13_E8_10" from="-E13" to="E8" begin="0" end="1800" vehsPerHour="71.0" departLane="best" departSpeed="max"/>
    <flow id="f_E13_E9_11" from="-E13" to="E9" begin="0" end="1800" vehsPerHour="71.0" departLane="best" departSpeed="max"/>
    <flow id="f_E14_E6_12" from="-E14" to="E6" begin="0" end="1800" vehsPerHour="71.0" departLane="best" departSpeed="max"/>
    <flow id="f_E14_E7_13" from="-E14" to="E7" begin="0" end="1800" vehsPerHour="71.0" departLane="best" departSpeed="max"/>
    <flow id="f_E14_E9_14" from="-E14" to="E9" begin="0" end="1800" vehsPerHour="71.0" departLane="best" departSpeed="max"/>
    <flow id="f_E5_E10_15" from="-E5" to="E10" begin="0" end="1800" vehsPerHour="4.5" departLane="best" departSpeed="max"/>
    <flow id="f_E5_E11_16" from="-E5" to="E11" begin="0" end="1800" vehsPerHour="4.5" departLane="best" departSpeed="max"/>
    <flow id="f_E5_E12_17" from="-E5" to="E12" begin="0" end="1800" vehsPerHour="4.5" departLane="best" departSpeed="max"/>
    <flow id="f_E5_E13_18" from="-E5" to="E13" begin="0" end="1800" vehsPerHour="4.5" departLane="best" departSpeed="max"/>
    <flow id="f_E6_E10_19" from="-E6" to="E10" begin="0" end="1800" vehsPerHour="4.5" departLane="best" departSpeed="max"/>
    <flow id="f_E6_E12_20" from="-E6" to="E12" begin="0" end="1800" vehsPerHour="4.5" departLane="best" departSpeed="max"/>
    <flow id="f_E6_E14_21" from="-E6" to="E14" begin="0" end="1800" vehsPerHour="4.5" departLane="best" departSpeed="max"/>
    <flow id="f_E7_E10_22" from="-E7" to="E10" begin="0" end="1800" vehsPerHour="4.5" departLane="best" departSpeed="max"/>
    <flow id="f_E7_E11_23" from="-E7" to="E11" begin="0" end="1800" vehsPerHour="4.5" departLane="best" departSpeed="max"/>
    <flow id="f_E7_E14_24" from="-E7" to="E14" begin="0" end="1800" vehsPerHour="4.5" departLane="best" departSpeed="max"/>
    <flow id="f_E8_E11_25" from="-E8" to="E11" begin="0" end="1800" vehsPerHour="4.5" departLane="best" departSpeed="max"/>
    <flow id="f_E8_E12_26" from="-E8" to="E12" begin="0" end="1800" vehsPerHour="4.5" departLane="best" departSpeed="max"/>
    <flow id="f_E8_E13_27" from="-E8" to="E13" begin="0" end="1800" vehsPerHour="4.5" departLane="best" departSpeed="max"/>
    <flow id="f_E9_E10_28" from="-E9" to="E10" begin="0" end="1800" vehsPerHour="4.5" departLane="best" departSpeed="max"/>
    <flow id="f_E9_E11_29" from="-E9" to="E11" begin="0" end="1800" vehsPerHour="4.5" departLane="best" departSpeed="max"/>
    <flow id="f_E9_E12_30" from="-E9" to="E12" begin="0" end="1800" vehsPerHour="4.5" departLane="best" departSpeed="max"/>
    <flow id="f_E9_E14_31" from="-E9" to="E14" begin="0" end="1800" vehsPerHour="4.5" departLane="best" departSpeed="max"/>
    <flow id="f_E5_E6_32" from="-E5" to="E6" begin="0" end="1800" vehsPerHour="4.5" departLane="best" departSpeed="max"/>
    <flow id="f_E5_E7_33" from="-E5" to="E7" begin="0" end="1800" vehsPerHour="4.5" departLane="best" departSpeed="max"/>
    <flow id="f_E5_E8_34" from="-E5" to="E8" begin="0" end="1800" vehsPerHour="4.5" departLane="best" departSpeed="max"/>
    <flow id="f_E5_E9_35" from="-E5" to="E9" begin="0" end="1800" vehsPerHour="4.5" departLane="best" departSpeed="max"/>
    <flow id="f_E6_E5_36" from="-E6" to="E5" begin="0" end="1800" vehsPerHour="4.5" departLane="best" departSpeed="max"/>
    <flow id="f_E6_E7_37" from="-E6" to="E7" begin="0" end="1800" vehsPerHour="4.5" departLane="best" departSpeed="max"/>
    <flow id="f_E6_E8_38" from="-E6" to="E8" begin="0" end="1800" vehsPerHour="4.5" departLane="best" departSpeed="max"/>
    <flow id="f_E6_E9_39" from="-E6" to="E9" begin="0" end="1800" vehsPerHour="4.5" departLane="best" departSpeed="max"/>
    <flow id="f_E7_E5_40" from="-E7" to="E5" begin="0" end="1800" vehsPerHour="4.5" departLane="best" departSpeed="max"/>
    <flow id="f_E7_E6_41" from="-E7" to="E6" begin="0" end="1800" vehsPerHour="4.5" departLane="best" departSpeed="max"/>
    <flow id="f_E7_E8_42" from="-E7" to="E8" begin="0" end="1800" vehsPerHour="4.5" departLane="best" departSpeed="max"/>
    <flow id="f_E7_E9_43" from="-E7" to="E9" begin="0" end="1800" vehsPerHour="4.5" departLane="best" departSpeed="max"/>
    <flow id="f_E8_E5_44" from="-E8" to="E5" begin="0" end="1800" vehsPerHour="4.5" departLane="best" departSpeed="max"/>
    <flow id="f_E8_E6_45" from="-E8" to="E6" begin="0" end="1800" vehsPerHour="4.5" departLane="best" departSpeed="max"/>
    <flow id="f_E8_E7_46" from="-E8" to="E7" begin="0" end="1800" vehsPerHour="4.5" departLane="best" departSpeed="max"/>
    <flow id="f_E8_E9_47" from="-E8" to="E9" begin="0" end="1800" vehsPerHour="4.5" departLane="best" departSpeed="max"/>
    <flow id="f_E9_E5_48" from="-E9" to="E5" begin="0" end="1800" vehsPerHour="4.5" departLane="best" departSpeed="max"/>
    <flow id="f_E9_E6_49" from="-E9" to="E6" begin="0" end="1800" vehsPerHour="4.5" departLane="best" departSpeed="max"/>
    <flow id="f_E9_E7_50" from="-E9" to="E7" begin="0" end="1800" vehsPerHour="4.5" departLane="best" departSpeed="max"/>
    <flow id="f_E9_E8_51" from="-E9" to="E8" begin="0" end="1800" vehsPerHour="4.5" departLane="best" departSpeed="max"/>
    <flow id="f_E10_E11_52" from="-E10" to="E11" begin="0" end="1800" vehsPerHour="4.5" departLane="best" departSpeed="max"/>
    <flow id="f_E11_E10_53" from="-E11" to="E10" begin="0" end="1800" vehsPerHour="4.5" departLane="best" departSpeed="max"/>
    <flow id="f_E10_E12_54" from="-E10" to="E12" begin="0" end="1800" vehsPerHour="4.5" departLane="best" departSpeed="max"/>
    <flow id="f_E10_E13_55" from="-E10" to="E13" begin="0" end="1800" vehsPerHour="4.5" departLane="best" departSpeed="max"/>
    <flow id="f_E10_E14_56" from="-E10" to="E14" begin="0" end="1800" vehsPerHour="4.5" departLane="best" departSpeed="max"/>
    <flow id="f_E11_E12_57" from="-E11" to="E12" begin="0" end="1800" vehsPerHour="4.5" departLane="best" departSpeed="max"/>
    <flow id="f_E11_E13_58" from="-E11" to="E13" begin="0" end="1800" vehsPerHour="4.5" departLane="best" departSpeed="max"/>
    <flow id="f_E11_E14_59" from="-E11" to="E14" begin="0" end="1800" vehsPerHour="4.5" departLane="best" departSpeed="max"/>
    <flow id="f_E12_E13_60" from="-E12" to="E13" begin="0" end="1800" vehsPerHour="4.5" departLane="best" departSpeed="max"/>
    <flow id="f_E12_E14_61" from="-E12" to="E14" begin="0" end="1800" vehsPerHour="4.5" departLane="best" departSpeed="max"/>
    <flow id="f_E13_E12_62" from="-E13" to="E12" begin="0" end="1800" vehsPerHour="4.5" departLane="best" departSpeed="max"/>
    <flow id="f_E13_E14_63" from="-E13" to="E14" begin="0" end="1800" vehsPerHour="4.5" departLane="best" departSpeed="max"/>
    <flow id="f_E14_E12_64" from="-E14" to="E12" begin="0" end="1800" vehsPerHour="4.5" departLane="best" departSpeed="max"/>
    <flow id="f_E14_E13_65" from="-E14" to="E13" begin="0" end="1800" vehsPerHour="4.5" departLane="best" departSpeed="max"/>
</routes>