<?xml version="1.0" encoding="UTF-8"?>
<routes xmlns:xsi="http://www.w3.org/2001/XMLSchema-instance" xsi:noNamespaceSchemaLocation="http://sumo.dlr.de/xsd/routes_file.xsd">
    <vType id="car" accel="2.6" decel="4.5" sigma="0.5" length="5" minGap="2.5" maxSpeed="50"/>
    <flow id="f_E5_E10_0" from="-E5" to="E10" begin="0" end="1800" vehsPerHour="3.9" departLane="best" departSpeed="max"/>
    <flow id="f_E5_E11_1" from="-E5" to="E11" begin="0" end="1800" vehsPerHour="3.9" departLane="best" departSpeed="max"/>
    <flow id="f_E5_E12_2" from="-E5" to="E12" begin="0" end="1800" vehsPerHour="3.9" departLane="best" departSpeed="max"/>
    <flow id="f_E5_E13_3" from="-E5" to="E13" begin="0" end="1800" vehsPerHour="3.9" departLane="best" departSpeed="max"/>
    <flow id="f_E6_E10_4" from="-E6" to="E10" begin="0" end="1800" vehsPerHour="3.9" departLane="best" departSpeed="max"/>
    <flow id="f_E6_E12_5" from="-E6" to="E12" begin="0" end="1800" vehsPerHour="3.9" departLane="best" departSpeed="max"/>
    <flow id="f_E6_E14_6" from="-E6" to="E14" begin="0" end="1800" vehsPerHour="3.9" departLane="best" departSpeed="max"/>
    <flow id="f_E7_E10_7" from="-E7" to="E10" begin="0" end="1800" vehsPerHour="3.9" departLane="best" departSpeed="max"/>
    <flow id="f_E7_E11_8" from="-E7" to="E11" begin="0" end="1800" vehsPerHour="3.9" departLane="best" departSpeed="max"/>
    <flow id="f_E7_E14_9" from="-E7" to="E14" begin="0" end="1800" vehsPerHour="3.9" departLane="best" departSpeed="max"/>
    <flow id="f_E8_E11_10" from="-E8" to="E11" begin="0" end="1800" vehsPerHour="3.9" departLane="best" departSpeed="max"/>
    <flow id="f_E8_E12_11" from="-E8" to="E12" begin="0" end="1800" vehsPerHour="3.9" departLane="best" departSpeed="max"/>
    <flow id="f_E8_E13_12" from="-E8" to="E13" begin="0" end="1800" vehsPerHour="3.9" departLane="best" departSpeed="max"/>
    <flow id="f_E9_E10_13" from="-E9" to="E10" begin="0" end="133" vehsPerHour="3.9" departLane="best" departSpeed="max"/>
    <flow id="f_E9_E10_14" from="-E9" to="E10" begin="232" end="1800" vehsPerHour="3.9" departLane="best" departSpeed="max"/>
    <flow id="f_E9_E11_15" from="-E9" to="E11" begin="0" end="133" vehsPerHour="3.9" departLane="best" departSpeed="max"/>
    <flow id="f_E9_E11_16" from="-E9" to="E11" begin="232" end="1800" vehsPerHour="3.9" departLane="best" departSpeed="max"/>
    <flow id="f_E9_E12_17" from="-E9" to="E12" begin="0" end="133" vehsPerHour="3.9" departLane="best" departSpeed="max"/>
    <flow id="f_E9_E12_18" from="-E9" to="E12" begin="232" end="1800" vehsPerHour="3.9" departLane="best" departSpeed="max"/>
    <flow id="f_E9_E14_19" from="-E9" to="E14" begin="0" end="133" vehsPerHour="3.9" departLane="best" departSpeed="max"/>
    <flow id="f_E9_E14_20" from="-E9" to="E14" begin="232" end="1800" vehsPerHour="3.9" departLane="best" departSpeed="max"/>
    <flow id="f_E10_E5_21" from="-E10" to="E5" begin="0" end="1800" vehsPerHour="3.9" departLane="best" departSpeed="max"/>
    <flow id="f_E10_E7_22" from="-E10" to="E7" begin="0" end="1800" vehsPerHour="3.9" departLane="best" departSpeed="max"/>
    <flow id="f_E10_E9_23" from="-E10" to="E9" begin="0" end="1800" vehsPerHour="3.9" departLane="best" departSpeed="max"/>
    <flow id="f_E11_E5_24" from="-E11" to="E5" begin="0" end="1800" vehsPerHour="3.9" departLane="best" departSpeed="max"/>
    <flow id="f_E11_E8_25" from="-E11" to="E8" begin="0" end="1800" vehsPerHour="3.9" departLane="best" departSpeed="max"/>
    <flow id="f_E11_E9_26" from="-E11" to="E9" begin="0" end="1800" vehsPerHour="3.9" departLane="best" departSpeed="max"/>
    <flow id="f_E12_E5_27" from="-E12" to="E5" begin="0" end="1800" vehsPerHour="3.9" departLane="best" departSpeed="max"/>
    <flow id="f_E12_E7_28" from="-E12" to="E7" begin="0" end="1800" vehsPerHour="3.9" departLane="best" departSpeed="max"/>
    <flow id="f_E12_E9_29" from="-E12" to="E9" begin="0" end="1800" vehsPerHour="3.9" departLane="best" departSpeed="max"/>
    <flow id="f_E13_E6_30" from="-E13" to="E6" begin="0" end="1800" vehsPerHour="3.9" departLane="best" departSpeed="max"/>
    <flow id="f_E13_E8_31" from="-E13" to="E8" begin="0" end="1800" vehsPerHour="3.9" departLane="best" departSpeed="max"/>
    <flow id="f_E13_E9_32" from="-E13" to="E9" begin="0" end="1800" vehsPerHour="3.9" departLane="best" departSpeed="max"/>
    <flow id="f_E14_E6_33" from="-E14" to="E6" begin="0" end="1800" vehsPerHour="3.9" departLane="best" departSpeed="max"/>
    <flow id="f_E14_E7_34" from="-E14" to="E7" begin="0" end="1800" vehsPerHour="3.9" departLane="best" departSpeed="max"/>
    <flow id="f_E14_E9_35" from="-E14" to="E9" begin="0" end="1800" vehsPerHour="3.9" departLane="best" departSpeed="max"/>
    <flow id="f_E5_E6_36" from="-E5" to="E6" begin="0" end="1800" vehsPerHour="3.9" departLane="best" departSpeed="max"/>
    <flow id="f_E5_E7_37" from="-E5" to="E7" begin="0" end="1800" vehsPerHour="3.9" departLane="best" departSpeed="max"/>
    <flow id="f_E5_E8_38" from="-E5" to="E8" begin="0" end="1800" vehsPerHour="3.9" departLane="best" departSpeed="max"/>
    <flow id="f_E5_E9_39" from="-E5" to="E9" begin="0" end="1800" vehsPerHour="3.9" departLane="best" departSpeed="max"/>
    <flow id="f_E6_E5_40" from="-E6" to="E5" begin="0" end="1800" vehsPerHour="3.9" departLane="best" departSpeed="max"/>
    <flow id="f_E6_E7_41" from="-E6" to="E7" begin="0" end="1800" vehsPerHour="3.9" departLane="best" departSpeed="max"/>
    <flow id="f_E6_E8_42" from="-E6" to="E8" begin="0" end="1800" vehsPerHour="3.9" departLane="best" departSpeed="max"/>
    <flow id="f_E6_E9_43" from="-E6" to="E9" begin="0" end="1800" vehsPerHour="3.9" departLane="best" departSpeed="max"/>
    <flow id="f_E7_E5_44" from="-E7" to="E5" begin="0" end="1800" vehsPerHour="3.9" departLane="best" departSpeed="max"/>
    <flow id="f_E7_E6_45" from="-E7" to="E6" begin="0" end="1800" vehsPerHour="3.9" departLane="best" departSpeed="max"/>
    <flow id="f_E7_E8_46" from="-E7" to="E8" begin="0" end="1800" vehsPerHour="3.9" departLane="best" departSpeed="max"/>
    <flow id="f_E7_E9_47" from="-E7" to="E9" begin="0" end="1800" vehsPerHour="3.9" departLane="best" departSpeed="max"/>
    <flow id="f_E8_E5_48" from="-E8" to="E5" begin="0" end="1800" vehsPerHour="3.9" departLane="best" departSpeed="max"/>
    <flow id="f_E8_E6_49" from="-E8" to="E6" begin="0" end="1800" vehsPerHour="3.9" departLane="best" departSpeed="max"/>
    <flow id="f_E8_E7_50" from="-E8" to="E7" begin="0" end="1800" vehsPerHour="3.9" departLane="best" departSpeed="max"/>
    <flow id="f_E8_E9_51" from="-E8" to="E9" begin="0" end="1800" vehsPerHour="3.9" departLane="best" departSpeed="max"/>
    <flow id="f_E9_E5_52" from="-E9" to="E5" begin="0" end="133" vehsPerHour="3.9" departLane="best" departSpeed="max"/>
    <flow id="f_E9_E5_53" from="-E9" to="E5" begin="232" end="1800" vehsPerHour="3.9" departLane="best" departSpeed="max"/>
    <flow id="f_E9_E6_54" from="-E9" to="E6" begin="0" end="133" vehsPerHour="3.9" departLane="best" departSpeed="max"/>
    <flow id="f_E9_E6_55" from="-E9" to="E6" begin="232" end="1800" vehsPerHour="3.9" departLane="best" departSpeed="max"/>
    <flow id="f_E9_E7_56" from="-E9" to="E7" begin="0" end="133" vehsPerHour="3.9" departLane="best" departSpeed="max"/>
    <flow id="f_E9_E7_57" from="-E9" to="E7" begin="232" end="1800" vehsPerHour="3.9" departLane="best" departSpeed="max"/>
    <flow id="f_E9_E8_58" from="-E9" to="E8" begin="0" end="133" vehsPerHour="3.9" departLane="best" departSpeed="max"/>
    <flow id="f_E9_E8_59" from="-E9" to="E8" begin="232" end="1800" vehsPerHour="3.9" departLane="best" departSpeed="max"/>
    <flow id="f_E10_E11_60" from="-E10" to="E11" begin="0" end="1800" vehsPerHour="3.9" departLane="best" departSpeed="max"/>
    <flow id="f_E11_E10_61" from="-E11" to="E10" begin="0" end="1800" vehsPerHour="3.9" departLane="best" departSpeed="max"/>
    <flow id="f_E10_E12_62" from="-E10" to="E12" begin="0" end="1800" vehsPerHour="3.9" departLane="best" departSpeed="max"/>
    <flow id="f_E10_E13_63" from="-E10" to="E13" begin="0" end="1800" vehsPerHour="3.9" departLane="best" departSpeed="max"/>
    <flow id="f_E10_E14_64" from="-E10" to="E14" begin="0" end="1800" vehsPerHour="3.9" departLane="best" departSpeed="max"/>
    <flow id="f_E11_E12_65" from="-E11" to="E12" begin="0" end="1800" vehsPerHour="3.9" departLane="best" departSpeed="max"/>
    <flow id="f_E11_E13_66" from="-E11" to="E13" begin="0" end="1800" vehsPerHour="3.9" departLane="best" departSpeed="max"/>
    <flow id="f_E11_E14_67" from="-E11" to="E14" begin="0" end="1800" vehsPerHour="3.9" departLane="best" departSpeed="max"/>
    <flow id="f_E12_E13_68" from="-E12" to="E13" begin="0" end="1800" vehsPerHour="3.9" departLane="best" departSpeed="max"/>
    <flow id="f_E12_E14_69" from="-E12" to="E14" begin="0" end="1800" vehsPerHour="3.9" departLane="best" departSpeed="max"/>
    <flow id="f_E13_E12_70" from="-E13" to="E12" begin="0" end="1800" vehsPerHour="3.9" departLane="best" departSpeed="max"/>
    <flow id="f_E13_E14_71" from="-E13" to="E14" begin="0" end="1800" vehsPerHour="3.9" departLane="best" departSpeed="max"/>
    <flow id="f_E14_E12_72" from="-E14" to="E12" begin="0" end="1800" vehsPerHour="3.9" departLane="best" departSpeed="max"/>
    <flow id="f_E14_E13_73" from="-E14" to="E13" begin="0" end="1800" vehsPerHour="3.9" departLane="best" departSpeed="max"/>
</routes>